1

   Abaqus Version 6.7-3                                     DATE 04-Nov-2010   TIME 23:18:45
   For use at EDV Zentrum Uni Innsbruck under license from ABAQUS, Inc.



                            Abaqus has been developed by:
 
                                  ABAQUS, Inc.
                                Rising Sun Mills
                               166 Valley Street
                         Providence, RI 02909-2499, USA
 


                   Available for internal use at EDV Zentrum Uni Innsbruck. 
                   The ABAQUS Online Support System is accessible through
                   the "My ABAQUS" section of the ABAQUS Home Page at
                   http://www.abaqus.com.

                   Support policies for academic licenses are described on
                   the ABAQUS web site at
                   http://www.abaqus.com/products/products_academic.html.
 
                        On machine c810-cl22 
                        you are authorized to run
                        Abaqus/Standard until 30-Apr-2011

                        Your site id is: 16UINNS 


 
                    For assistance or any other information you may
                    obtain contact information for your local office
                    from the world wide web at:

                      http://www.simulia.com/about/locations.html

 
                * * * * * * * * * * * * * * * * * * * * * * * * * * * * * * 
                *                                                         * 
                *                   *****************                     * 
                *                   *  N O T I C E  *                     * 
                *                   *****************                     * 
                *                                                         * 
                *                                                         * 
                *                 Abaqus Version 6.7-3                    * 
                *                                                         * 
                *          BUILD ID: 2007_08_06-15.53.37 79879            * 
                *                                                         * 
                *                                                         * 
                *  Please make sure you are using version 6.7 manuals     * 
                *  plus the notes accompanying this release.              * 
                *                                                         * 
                *                                                         * 
                *                                                         * 
                *                                                         * 
                *                                                         * 
                *   This program may not be used for commercial purposes  * 
                *           without payment of a commercial fee.          * 
                *                                                         * 
                * * * * * * * * * * * * * * * * * * * * * * * * * * * * * * 


 



     PROCESSING PART, INSTANCE, AND ASSEMBLY INFORMATION
   *******************************************************


     END PROCESSING PART, INSTANCE, AND ASSEMBLY INFORMATION
   ***********************************************************

1

   Abaqus Version 6.7-3                                     DATE 04-Nov-2010   TIME 23:18:45
   For use at EDV Zentrum Uni Innsbruck under license from ABAQUS, Inc.

                                                                                     

                                      P A R A M E T E R   I N T E R P R E T A T I O N


                        5   10   15   20   25   30   35   40   45   50   55   60   65   70   75   80
                    --------------------------------------------------------------------------------
                            
                     ***COMMENT: STARTING PARAMETER EVALUATION      
                            
                     ***COMMENT: STARTING PARAMETER SUBSTITUTION    
     LINE     5             
                     ***COMMENT: EVALUATION AND SUBSTITUTION OF PARAMETERS COMPLETED
                    --------------------------------------------------------------------------------
                        5   10   15   20   25   30   35   40   45   50   55   60   65   70   75   80
                    --------------------------------------------------------------------------------



     OPTIONS BEING PROCESSED
   ***************************


  *Heading
  *Node
  *Element, type=C3D8I
  *Element, type=S4
  *Element, type=B31
  *Element, type=S4
  *Element, type=B31
  *Element, type=S4
  *Nset, nset=ASSEMBLY_PART-1-1_SIDE_FLOOR1
  *Nset, nset=ASSEMBLY_PART-1-1_SIDE_FLOOR2
  *Nset, nset=ASSEMBLY_PART-1-1_SIDE_FLOOR3
  *Nset, nset=ASSEMBLY_PART-1-1_SIDE_FLOOR4
  *Nset, nset=ASSEMBLY_PART-1-1_SIDE_FLOOR5
  *Nset, nset=ASSEMBLY_PART-1-1_SIDE_FLOOR6
  *Nset, nset=ASSEMBLY_PART-1-1_SOIL_NODES
  *Elset, elset=ASSEMBLY_PART-1-1_ALL
  *Elset, elset=ASSEMBLY_PART-1-1_BAR_COLUMNS
  *Elset, elset=ASSEMBLY_PART-1-1_COL_10_FLOOR_1
  *Elset, elset=ASSEMBLY_PART-1-1_COL_10_FLOOR_2
  *Elset, elset=ASSEMBLY_PART-1-1_COL_10_FLOOR_3
  *Elset, elset=ASSEMBLY_PART-1-1_COL_10_FLOOR_4
  *Elset, elset=ASSEMBLY_PART-1-1_COL_10_FLOOR_5
  *Elset, elset=ASSEMBLY_PART-1-1_COL_10_FLOOR_6
  *Elset, elset=ASSEMBLY_PART-1-1_COL_11_FLOOR_1
  *Elset, elset=ASSEMBLY_PART-1-1_COL_11_FLOOR_2
  *Elset, elset=ASSEMBLY_PART-1-1_COL_11_FLOOR_3
  *Elset, elset=ASSEMBLY_PART-1-1_COL_11_FLOOR_4
  *Elset, elset=ASSEMBLY_PART-1-1_COL_11_FLOOR_5
  *Elset, elset=ASSEMBLY_PART-1-1_COL_11_FLOOR_6
  *Elset, elset=ASSEMBLY_PART-1-1_COL_12_FLOOR_1
  *Elset, elset=ASSEMBLY_PART-1-1_COL_12_FLOOR_2
  *Elset, elset=ASSEMBLY_PART-1-1_COL_12_FLOOR_3
  *Elset, elset=ASSEMBLY_PART-1-1_COL_12_FLOOR_4
  *Elset, elset=ASSEMBLY_PART-1-1_COL_12_FLOOR_5
  *Elset, elset=ASSEMBLY_PART-1-1_COL_12_FLOOR_6
  *Elset, elset=ASSEMBLY_PART-1-1_COL_13_FLOOR_1
  *Elset, elset=ASSEMBLY_PART-1-1_COL_13_FLOOR_2
  *Elset, elset=ASSEMBLY_PART-1-1_COL_13_FLOOR_3
  *Elset, elset=ASSEMBLY_PART-1-1_COL_13_FLOOR_4
  *Elset, elset=ASSEMBLY_PART-1-1_COL_13_FLOOR_5
  *Elset, elset=ASSEMBLY_PART-1-1_COL_13_FLOOR_6
  *Elset, elset=ASSEMBLY_PART-1-1_COL_14_FLOOR_1
  *Elset, elset=ASSEMBLY_PART-1-1_COL_14_FLOOR_2
  *Elset, elset=ASSEMBLY_PART-1-1_COL_14_FLOOR_3
  *Elset, elset=ASSEMBLY_PART-1-1_COL_14_FLOOR_4
  *Elset, elset=ASSEMBLY_PART-1-1_COL_14_FLOOR_5
  *Elset, elset=ASSEMBLY_PART-1-1_COL_14_FLOOR_6
  *Elset, elset=ASSEMBLY_PART-1-1_COL_15_FLOOR_1
  *Elset, elset=ASSEMBLY_PART-1-1_COL_15_FLOOR_2
  *Elset, elset=ASSEMBLY_PART-1-1_COL_15_FLOOR_3
  *Elset, elset=ASSEMBLY_PART-1-1_COL_15_FLOOR_4
  *Elset, elset=ASSEMBLY_PART-1-1_COL_15_FLOOR_5
  *Elset, elset=ASSEMBLY_PART-1-1_COL_15_FLOOR_6
  *Elset, elset=ASSEMBLY_PART-1-1_COL_16_FLOOR_1
  *Elset, elset=ASSEMBLY_PART-1-1_COL_16_FLOOR_2
  *Elset, elset=ASSEMBLY_PART-1-1_COL_16_FLOOR_3
  *Elset, elset=ASSEMBLY_PART-1-1_COL_16_FLOOR_4
  *Elset, elset=ASSEMBLY_PART-1-1_COL_16_FLOOR_5
  *Elset, elset=ASSEMBLY_PART-1-1_COL_16_FLOOR_6
  *Elset, elset=ASSEMBLY_PART-1-1_COL_1_FLOOR_1
  *Elset, elset=ASSEMBLY_PART-1-1_COL_1_FLOOR_2
  *Elset, elset=ASSEMBLY_PART-1-1_COL_1_FLOOR_3
  *Elset, elset=ASSEMBLY_PART-1-1_COL_1_FLOOR_4
  *Elset, elset=ASSEMBLY_PART-1-1_COL_1_FLOOR_5
  *Elset, elset=ASSEMBLY_PART-1-1_COL_1_FLOOR_6
  *Elset, elset=ASSEMBLY_PART-1-1_COL_2_FLOOR_1
  *Elset, elset=ASSEMBLY_PART-1-1_COL_2_FLOOR_2
  *Elset, elset=ASSEMBLY_PART-1-1_COL_2_FLOOR_3
  *Elset, elset=ASSEMBLY_PART-1-1_COL_2_FLOOR_4
  *Elset, elset=ASSEMBLY_PART-1-1_COL_2_FLOOR_5
  *Elset, elset=ASSEMBLY_PART-1-1_COL_2_FLOOR_6
  *Elset, elset=ASSEMBLY_PART-1-1_COL_3_FLOOR_1
  *Elset, elset=ASSEMBLY_PART-1-1_COL_3_FLOOR_2
  *Elset, elset=ASSEMBLY_PART-1-1_COL_3_FLOOR_3
  *Elset, elset=ASSEMBLY_PART-1-1_COL_3_FLOOR_4
  *Elset, elset=ASSEMBLY_PART-1-1_COL_3_FLOOR_5
  *Elset, elset=ASSEMBLY_PART-1-1_COL_3_FLOOR_6
  *Elset, elset=ASSEMBLY_PART-1-1_COL_4_FLOOR_1
  *Elset, elset=ASSEMBLY_PART-1-1_COL_4_FLOOR_2
  *Elset, elset=ASSEMBLY_PART-1-1_COL_4_FLOOR_3
  *Elset, elset=ASSEMBLY_PART-1-1_COL_4_FLOOR_4
  *Elset, elset=ASSEMBLY_PART-1-1_COL_4_FLOOR_5
  *Elset, elset=ASSEMBLY_PART-1-1_COL_4_FLOOR_6
  *Elset, elset=ASSEMBLY_PART-1-1_COL_5_FLOOR_1
  *Elset, elset=ASSEMBLY_PART-1-1_COL_5_FLOOR_2
  *Elset, elset=ASSEMBLY_PART-1-1_COL_5_FLOOR_3
  *Elset, elset=ASSEMBLY_PART-1-1_COL_5_FLOOR_4
  *Elset, elset=ASSEMBLY_PART-1-1_COL_5_FLOOR_5
  *Elset, elset=ASSEMBLY_PART-1-1_COL_5_FLOOR_6
  *Elset, elset=ASSEMBLY_PART-1-1_COL_6_FLOOR_1
  *Elset, elset=ASSEMBLY_PART-1-1_COL_6_FLOOR_2
  *Elset, elset=ASSEMBLY_PART-1-1_COL_6_FLOOR_3
  *Elset, elset=ASSEMBLY_PART-1-1_COL_6_FLOOR_4
  *Elset, elset=ASSEMBLY_PART-1-1_COL_6_FLOOR_5
  *Elset, elset=ASSEMBLY_PART-1-1_COL_6_FLOOR_6
  *Elset, elset=ASSEMBLY_PART-1-1_COL_7_FLOOR_1
  *Elset, elset=ASSEMBLY_PART-1-1_COL_7_FLOOR_2
  *Elset, elset=ASSEMBLY_PART-1-1_COL_7_FLOOR_3
  *Elset, elset=ASSEMBLY_PART-1-1_COL_7_FLOOR_4
  *Elset, elset=ASSEMBLY_PART-1-1_COL_7_FLOOR_5
  *Elset, elset=ASSEMBLY_PART-1-1_COL_7_FLOOR_6
  *Elset, elset=ASSEMBLY_PART-1-1_COL_8_FLOOR_1
  *Elset, elset=ASSEMBLY_PART-1-1_COL_8_FLOOR_2
  *Elset, elset=ASSEMBLY_PART-1-1_COL_8_FLOOR_3
  *Elset, elset=ASSEMBLY_PART-1-1_COL_8_FLOOR_4
  *Elset, elset=ASSEMBLY_PART-1-1_COL_8_FLOOR_5
  *Elset, elset=ASSEMBLY_PART-1-1_COL_8_FLOOR_6
  *Elset, elset=ASSEMBLY_PART-1-1_COL_9_FLOOR_1
  *Elset, elset=ASSEMBLY_PART-1-1_COL_9_FLOOR_2
  *Elset, elset=ASSEMBLY_PART-1-1_COL_9_FLOOR_3
  *Elset, elset=ASSEMBLY_PART-1-1_COL_9_FLOOR_4
  *Elset, elset=ASSEMBLY_PART-1-1_COL_9_FLOOR_5
  *Elset, elset=ASSEMBLY_PART-1-1_COL_9_FLOOR_6
  *Elset, elset=ASSEMBLY_PART-1-1_FLOOR1
  *Elset, elset=ASSEMBLY_PART-1-1_FLOOR2
  *Elset, elset=ASSEMBLY_PART-1-1_FLOOR3
  *Elset, elset=ASSEMBLY_PART-1-1_FLOOR4
  *Elset, elset=ASSEMBLY_PART-1-1_FLOOR5
  *Elset, elset=ASSEMBLY_PART-1-1_FLOOR6
  *Elset, elset=ASSEMBLY_PART-1-1_PSHELL_CELLAR
  *Elset, elset=ASSEMBLY_PART-1-1_PSHELL_FLOORS
  *Elset, elset=ASSEMBLY_PART-1-1_PSHELL_STAIRS
  *Elset, elset=ASSEMBLY_PART-1-1_PSOLID_1
  *Elset, elset=ASSEMBLY_PART-1-1_STAIRS_CEIL
  *Elset, elset=ASSEMBLY_PART-1-1_STAIRS_FLOOR1
  *Elset, elset=ASSEMBLY_PART-1-1_STAIRS_FLOOR2
  *Elset, elset=ASSEMBLY_PART-1-1_STAIRS_FLOOR3
  *Elset, elset=ASSEMBLY_PART-1-1_STAIRS_FLOOR4
  *Elset, elset=ASSEMBLY_PART-1-1_STAIRS_FLOOR5
  *Elset, elset=ASSEMBLY_PART-1-1_STAIRS_FLOOR6
  *Elset, elset=ASSEMBLY_PART-1-1__SIDE_CEIL_SPOS
  *physicalconstants, absolutezero=0, stefanboltzmann=0
  *surface, type=ELEMENT, name=ASSEMBLY_PART-1-1_SIDE_CEIL
  *surface, type=ELEMENT, name=ASSEMBLY_PART-1-1_SIDE_CEIL
  *material, name=CELLAR_MAT
  *density
  *elastic
  *material, name=FLOOR_1
  *density
  *elastic
  *material, name=FLOOR_2
  *density
  *elastic
  *material, name=FLOOR_3
  *density
  *elastic
  *material, name=FLOOR_4
  *density
  *elastic
  *material, name=FLOOR_5
  *density
  *elastic
  *material, name=FLOOR_6
  *density
  *elastic
  *material, name=SOIL
  *density
  *elastic
  *material, name=STAIRS_1
  *density
  *elastic
  *material, name=STAIRS_2
  *density
  *elastic
  *material, name=STAIRS_3
  *density
  *elastic
  *material, name=STAIRS_4
  *density
  *elastic
  *material, name=STAIRS_5
  *density
  *elastic
  *material, name=STAIRS_6
  *density
  *elastic
  *material, name=STAIRS_CEIL
  *density
  *elastic
  *beamgeneralsection, elset=ASSEMBLY_PART-1-1_COL_1_FLOOR_1, density=2641, section=RECTANGULAR
  *beamgeneralsection, elset=ASSEMBLY_PART-1-1_COL_2_FLOOR_1, density=2641, section=RECTANGULAR
  *beamgeneralsection, elset=ASSEMBLY_PART-1-1_COL_3_FLOOR_1, density=2641, section=RECTANGULAR
  *beamgeneralsection, elset=ASSEMBLY_PART-1-1_COL_4_FLOOR_1, density=2641, section=RECTANGULAR
  *beamgeneralsection, elset=ASSEMBLY_PART-1-1_COL_5_FLOOR_1, density=2641, section=RECTANGULAR
  *beamgeneralsection, elset=ASSEMBLY_PART-1-1_COL_6_FLOOR_1, density=2641, section=RECTANGULAR
  *beamgeneralsection, elset=ASSEMBLY_PART-1-1_COL_7_FLOOR_1, density=2641, section=RECTANGULAR
  *beamgeneralsection, elset=ASSEMBLY_PART-1-1_COL_8_FLOOR_1, density=2641, section=RECTANGULAR
  *beamgeneralsection, elset=ASSEMBLY_PART-1-1_COL_9_FLOOR_1, density=2641, section=RECTANGULAR
  *beamgeneralsection, elset=ASSEMBLY_PART-1-1_COL_10_FLOOR_1, density=2641, section=RECTANGULAR
  *beamgeneralsection, elset=ASSEMBLY_PART-1-1_COL_11_FLOOR_1, density=2641, section=RECTANGULAR
  *beamgeneralsection, elset=ASSEMBLY_PART-1-1_COL_12_FLOOR_1, density=2641, section=RECTANGULAR
  *beamgeneralsection, elset=ASSEMBLY_PART-1-1_COL_13_FLOOR_1, density=2641, section=RECTANGULAR
  *beamgeneralsection, elset=ASSEMBLY_PART-1-1_COL_14_FLOOR_1, density=2641, section=RECTANGULAR
  *beamgeneralsection, elset=ASSEMBLY_PART-1-1_COL_15_FLOOR_1, density=2641, section=RECTANGULAR
  *beamgeneralsection, elset=ASSEMBLY_PART-1-1_COL_16_FLOOR_1, density=2641, section=RECTANGULAR
  *beamgeneralsection, elset=ASSEMBLY_PART-1-1_COL_1_FLOOR_2, density=3136, section=RECTANGULAR
  *beamgeneralsection, elset=ASSEMBLY_PART-1-1_COL_2_FLOOR_2, density=3136, section=RECTANGULAR
  *beamgeneralsection, elset=ASSEMBLY_PART-1-1_COL_3_FLOOR_2, density=3136, section=RECTANGULAR
  *beamgeneralsection, elset=ASSEMBLY_PART-1-1_COL_4_FLOOR_2, density=3136, section=RECTANGULAR
  *beamgeneralsection, elset=ASSEMBLY_PART-1-1_COL_5_FLOOR_2, density=3136, section=RECTANGULAR
  *beamgeneralsection, elset=ASSEMBLY_PART-1-1_COL_6_FLOOR_2, density=3136, section=RECTANGULAR
  *beamgeneralsection, elset=ASSEMBLY_PART-1-1_COL_7_FLOOR_2, density=3136, section=RECTANGULAR
  *beamgeneralsection, elset=ASSEMBLY_PART-1-1_COL_8_FLOOR_2, density=3136, section=RECTANGULAR
  *beamgeneralsection, elset=ASSEMBLY_PART-1-1_COL_9_FLOOR_2, density=3136, section=RECTANGULAR
  *beamgeneralsection, elset=ASSEMBLY_PART-1-1_COL_10_FLOOR_2, density=3136, section=RECTANGULAR
  *beamgeneralsection, elset=ASSEMBLY_PART-1-1_COL_11_FLOOR_2, density=3136, section=RECTANGULAR
  *beamgeneralsection, elset=ASSEMBLY_PART-1-1_COL_12_FLOOR_2, density=3136, section=RECTANGULAR
  *beamgeneralsection, elset=ASSEMBLY_PART-1-1_COL_13_FLOOR_2, density=3136, section=RECTANGULAR
  *beamgeneralsection, elset=ASSEMBLY_PART-1-1_COL_14_FLOOR_2, density=3136, section=RECTANGULAR
  *beamgeneralsection, elset=ASSEMBLY_PART-1-1_COL_15_FLOOR_2, density=3136, section=RECTANGULAR
  *beamgeneralsection, elset=ASSEMBLY_PART-1-1_COL_16_FLOOR_2, density=3136, section=RECTANGULAR
  *beamgeneralsection, elset=ASSEMBLY_PART-1-1_COL_1_FLOOR_3, density=3038, section=RECTANGULAR
  *beamgeneralsection, elset=ASSEMBLY_PART-1-1_COL_2_FLOOR_3, density=3038, section=RECTANGULAR
  *beamgeneralsection, elset=ASSEMBLY_PART-1-1_COL_3_FLOOR_3, density=3038, section=RECTANGULAR
  *beamgeneralsection, elset=ASSEMBLY_PART-1-1_COL_4_FLOOR_3, density=3038, section=RECTANGULAR
  *beamgeneralsection, elset=ASSEMBLY_PART-1-1_COL_5_FLOOR_3, density=3038, section=RECTANGULAR
  *beamgeneralsection, elset=ASSEMBLY_PART-1-1_COL_6_FLOOR_3, density=3038, section=RECTANGULAR
  *beamgeneralsection, elset=ASSEMBLY_PART-1-1_COL_7_FLOOR_3, density=3038, section=RECTANGULAR
  *beamgeneralsection, elset=ASSEMBLY_PART-1-1_COL_8_FLOOR_3, density=3038, section=RECTANGULAR
  *beamgeneralsection, elset=ASSEMBLY_PART-1-1_COL_9_FLOOR_3, density=3038, section=RECTANGULAR
  *beamgeneralsection, elset=ASSEMBLY_PART-1-1_COL_10_FLOOR_3, density=3038, section=RECTANGULAR
  *beamgeneralsection, elset=ASSEMBLY_PART-1-1_COL_11_FLOOR_3, density=3038, section=RECTANGULAR
  *beamgeneralsection, elset=ASSEMBLY_PART-1-1_COL_12_FLOOR_3, density=3038, section=RECTANGULAR
  *beamgeneralsection, elset=ASSEMBLY_PART-1-1_COL_13_FLOOR_3, density=3038, section=RECTANGULAR
  *beamgeneralsection, elset=ASSEMBLY_PART-1-1_COL_14_FLOOR_3, density=3038, section=RECTANGULAR
  *beamgeneralsection, elset=ASSEMBLY_PART-1-1_COL_15_FLOOR_3, density=3038, section=RECTANGULAR
  *beamgeneralsection, elset=ASSEMBLY_PART-1-1_COL_16_FLOOR_3, density=3038, section=RECTANGULAR
  *beamgeneralsection, elset=ASSEMBLY_PART-1-1_COL_1_FLOOR_4, density=2582, section=RECTANGULAR
  *beamgeneralsection, elset=ASSEMBLY_PART-1-1_COL_2_FLOOR_4, density=2582, section=RECTANGULAR
  *beamgeneralsection, elset=ASSEMBLY_PART-1-1_COL_3_FLOOR_4, density=2582, section=RECTANGULAR
  *beamgeneralsection, elset=ASSEMBLY_PART-1-1_COL_4_FLOOR_4, density=2582, section=RECTANGULAR
  *beamgeneralsection, elset=ASSEMBLY_PART-1-1_COL_5_FLOOR_4, density=2582, section=RECTANGULAR
  *beamgeneralsection, elset=ASSEMBLY_PART-1-1_COL_6_FLOOR_4, density=2582, section=RECTANGULAR
  *beamgeneralsection, elset=ASSEMBLY_PART-1-1_COL_7_FLOOR_4, density=2582, section=RECTANGULAR
  *beamgeneralsection, elset=ASSEMBLY_PART-1-1_COL_8_FLOOR_4, density=2582, section=RECTANGULAR
  *beamgeneralsection, elset=ASSEMBLY_PART-1-1_COL_9_FLOOR_4, density=2582, section=RECTANGULAR
  *beamgeneralsection, elset=ASSEMBLY_PART-1-1_COL_10_FLOOR_4, density=2582, section=RECTANGULAR
  *beamgeneralsection, elset=ASSEMBLY_PART-1-1_COL_11_FLOOR_4, density=2582, section=RECTANGULAR
  *beamgeneralsection, elset=ASSEMBLY_PART-1-1_COL_12_FLOOR_4, density=2582, section=RECTANGULAR
  *beamgeneralsection, elset=ASSEMBLY_PART-1-1_COL_13_FLOOR_4, density=2582, section=RECTANGULAR
  *beamgeneralsection, elset=ASSEMBLY_PART-1-1_COL_14_FLOOR_4, density=2582, section=RECTANGULAR
  *beamgeneralsection, elset=ASSEMBLY_PART-1-1_COL_15_FLOOR_4, density=2582, section=RECTANGULAR
  *beamgeneralsection, elset=ASSEMBLY_PART-1-1_COL_16_FLOOR_4, density=2582, section=RECTANGULAR
  *beamgeneralsection, elset=ASSEMBLY_PART-1-1_COL_1_FLOOR_5, density=2640, section=RECTANGULAR
  *beamgeneralsection, elset=ASSEMBLY_PART-1-1_COL_2_FLOOR_5, density=2640, section=RECTANGULAR
  *beamgeneralsection, elset=ASSEMBLY_PART-1-1_COL_3_FLOOR_5, density=2640, section=RECTANGULAR
  *beamgeneralsection, elset=ASSEMBLY_PART-1-1_COL_4_FLOOR_5, density=2640, section=RECTANGULAR
  *beamgeneralsection, elset=ASSEMBLY_PART-1-1_COL_5_FLOOR_5, density=2640, section=RECTANGULAR
  *beamgeneralsection, elset=ASSEMBLY_PART-1-1_COL_6_FLOOR_5, density=2640, section=RECTANGULAR
  *beamgeneralsection, elset=ASSEMBLY_PART-1-1_COL_7_FLOOR_5, density=2640, section=RECTANGULAR
  *beamgeneralsection, elset=ASSEMBLY_PART-1-1_COL_8_FLOOR_5, density=2640, section=RECTANGULAR
  *beamgeneralsection, elset=ASSEMBLY_PART-1-1_COL_9_FLOOR_5, density=2640, section=RECTANGULAR
  *beamgeneralsection, elset=ASSEMBLY_PART-1-1_COL_10_FLOOR_5, density=2640, section=RECTANGULAR
  *beamgeneralsection, elset=ASSEMBLY_PART-1-1_COL_11_FLOOR_5, density=2640, section=RECTANGULAR
  *beamgeneralsection, elset=ASSEMBLY_PART-1-1_COL_12_FLOOR_5, density=2640, section=RECTANGULAR
  *beamgeneralsection, elset=ASSEMBLY_PART-1-1_COL_13_FLOOR_5, density=2640, section=RECTANGULAR
  *beamgeneralsection, elset=ASSEMBLY_PART-1-1_COL_14_FLOOR_5, density=2640, section=RECTANGULAR
  *beamgeneralsection, elset=ASSEMBLY_PART-1-1_COL_15_FLOOR_5, density=2640, section=RECTANGULAR
  *beamgeneralsection, elset=ASSEMBLY_PART-1-1_COL_16_FLOOR_5, density=2640, section=RECTANGULAR
  *beamgeneralsection, elset=ASSEMBLY_PART-1-1_COL_1_FLOOR_6, density=2443, section=RECTANGULAR
  *beamgeneralsection, elset=ASSEMBLY_PART-1-1_COL_2_FLOOR_6, density=2443, section=RECTANGULAR
  *beamgeneralsection, elset=ASSEMBLY_PART-1-1_COL_3_FLOOR_6, density=2443, section=RECTANGULAR
  *beamgeneralsection, elset=ASSEMBLY_PART-1-1_COL_4_FLOOR_6, density=2443, section=RECTANGULAR
  *beamgeneralsection, elset=ASSEMBLY_PART-1-1_COL_5_FLOOR_6, density=2443, section=RECTANGULAR
  *beamgeneralsection, elset=ASSEMBLY_PART-1-1_COL_6_FLOOR_6, density=2443, section=RECTANGULAR
  *beamgeneralsection, elset=ASSEMBLY_PART-1-1_COL_7_FLOOR_6, density=2443, section=RECTANGULAR
  *beamgeneralsection, elset=ASSEMBLY_PART-1-1_COL_8_FLOOR_6, density=2443, section=RECTANGULAR
  *beamgeneralsection, elset=ASSEMBLY_PART-1-1_COL_9_FLOOR_6, density=2443, section=RECTANGULAR
  *beamgeneralsection, elset=ASSEMBLY_PART-1-1_COL_10_FLOOR_6, density=2443, section=RECTANGULAR
  *beamgeneralsection, elset=ASSEMBLY_PART-1-1_COL_11_FLOOR_6, density=2443, section=RECTANGULAR
  *beamgeneralsection, elset=ASSEMBLY_PART-1-1_COL_12_FLOOR_6, density=2443, section=RECTANGULAR
  *beamgeneralsection, elset=ASSEMBLY_PART-1-1_COL_13_FLOOR_6, density=2443, section=RECTANGULAR
  *beamgeneralsection, elset=ASSEMBLY_PART-1-1_COL_14_FLOOR_6, density=2443, section=RECTANGULAR
  *beamgeneralsection, elset=ASSEMBLY_PART-1-1_COL_15_FLOOR_6, density=2443, section=RECTANGULAR
  *beamgeneralsection, elset=ASSEMBLY_PART-1-1_COL_16_FLOOR_6, density=2443, section=RECTANGULAR
  *solidsection, elset=ASSEMBLY_PART-1-1_PSOLID_1, material=SOIL
  *shellsection, elset=ASSEMBLY_PART-1-1_PSHELL_CELLAR, material=CELLAR_MAT
  *shellsection, elset=ASSEMBLY_PART-1-1_STAIRS_FLOOR1, material=STAIRS_1
  *shellsection, elset=ASSEMBLY_PART-1-1_STAIRS_FLOOR2, material=STAIRS_2
  *shellsection, elset=ASSEMBLY_PART-1-1_STAIRS_FLOOR3, material=STAIRS_3
  *shellsection, elset=ASSEMBLY_PART-1-1_STAIRS_FLOOR4, material=STAIRS_4
  *shellsection, elset=ASSEMBLY_PART-1-1_STAIRS_FLOOR5, material=STAIRS_5
  *shellsection, elset=ASSEMBLY_PART-1-1_STAIRS_FLOOR6, material=STAIRS_6
  *shellsection, elset=ASSEMBLY_PART-1-1_STAIRS_CEIL, material=STAIRS_CEIL
  *shellsection, elset=ASSEMBLY_PART-1-1_FLOOR1, material=FLOOR_1
  *shellsection, elset=ASSEMBLY_PART-1-1_FLOOR2, material=FLOOR_2
  *shellsection, elset=ASSEMBLY_PART-1-1_FLOOR3, material=FLOOR_3
  *shellsection, elset=ASSEMBLY_PART-1-1_FLOOR4, material=FLOOR_4
  *shellsection, elset=ASSEMBLY_PART-1-1_FLOOR5, material=FLOOR_5
  *shellsection, elset=ASSEMBLY_PART-1-1_FLOOR6, material=FLOOR_6
  *boundary
  *solidsection, elset=ASSEMBLY_PART-1-1_PSOLID_1, material=SOIL
  *beamgeneralsection, elset=ASSEMBLY_PART-1-1_COL_1_FLOOR_1, density=2641, section=RECTANGULAR
  *sectionpoints
  *sectionpoints
  *beamgeneralsection, elset=ASSEMBLY_PART-1-1_COL_2_FLOOR_1, density=2641, section=RECTANGULAR
  *sectionpoints
  *sectionpoints
  *beamgeneralsection, elset=ASSEMBLY_PART-1-1_COL_3_FLOOR_1, density=2641, section=RECTANGULAR
  *sectionpoints
  *sectionpoints
  *beamgeneralsection, elset=ASSEMBLY_PART-1-1_COL_4_FLOOR_1, density=2641, section=RECTANGULAR
  *sectionpoints
  *beamgeneralsection, elset=ASSEMBLY_PART-1-1_COL_5_FLOOR_1, density=2641, section=RECTANGULAR
  *sectionpoints
  *beamgeneralsection, elset=ASSEMBLY_PART-1-1_COL_6_FLOOR_1, density=2641, section=RECTANGULAR
  *sectionpoints
  *beamgeneralsection, elset=ASSEMBLY_PART-1-1_COL_7_FLOOR_1, density=2641, section=RECTANGULAR
  *sectionpoints
  *beamgeneralsection, elset=ASSEMBLY_PART-1-1_COL_8_FLOOR_1, density=2641, section=RECTANGULAR
  *sectionpoints
  *beamgeneralsection, elset=ASSEMBLY_PART-1-1_COL_9_FLOOR_1, density=2641, section=RECTANGULAR
  *sectionpoints
  *beamgeneralsection, elset=ASSEMBLY_PART-1-1_COL_10_FLOOR_1, density=2641, section=RECTANGULAR
  *sectionpoints
  *beamgeneralsection, elset=ASSEMBLY_PART-1-1_COL_11_FLOOR_1, density=2641, section=RECTANGULAR
  *sectionpoints
  *beamgeneralsection, elset=ASSEMBLY_PART-1-1_COL_12_FLOOR_1, density=2641, section=RECTANGULAR
  *sectionpoints
  *beamgeneralsection, elset=ASSEMBLY_PART-1-1_COL_13_FLOOR_1, density=2641, section=RECTANGULAR
  *sectionpoints
  *beamgeneralsection, elset=ASSEMBLY_PART-1-1_COL_14_FLOOR_1, density=2641, section=RECTANGULAR
  *sectionpoints
  *beamgeneralsection, elset=ASSEMBLY_PART-1-1_COL_15_FLOOR_1, density=2641, section=RECTANGULAR
  *sectionpoints
  *beamgeneralsection, elset=ASSEMBLY_PART-1-1_COL_16_FLOOR_1, density=2641, section=RECTANGULAR
  *sectionpoints
  *beamgeneralsection, elset=ASSEMBLY_PART-1-1_COL_1_FLOOR_2, density=3136, section=RECTANGULAR
  *sectionpoints
  *beamgeneralsection, elset=ASSEMBLY_PART-1-1_COL_2_FLOOR_2, density=3136, section=RECTANGULAR
  *sectionpoints
  *beamgeneralsection, elset=ASSEMBLY_PART-1-1_COL_3_FLOOR_2, density=3136, section=RECTANGULAR
  *sectionpoints
  *beamgeneralsection, elset=ASSEMBLY_PART-1-1_COL_4_FLOOR_2, density=3136, section=RECTANGULAR
  *sectionpoints
  *beamgeneralsection, elset=ASSEMBLY_PART-1-1_COL_5_FLOOR_2, density=3136, section=RECTANGULAR
  *sectionpoints
  *beamgeneralsection, elset=ASSEMBLY_PART-1-1_COL_6_FLOOR_2, density=3136, section=RECTANGULAR
  *sectionpoints
  *beamgeneralsection, elset=ASSEMBLY_PART-1-1_COL_7_FLOOR_2, density=3136, section=RECTANGULAR
  *sectionpoints
  *beamgeneralsection, elset=ASSEMBLY_PART-1-1_COL_8_FLOOR_2, density=3136, section=RECTANGULAR
  *sectionpoints
  *beamgeneralsection, elset=ASSEMBLY_PART-1-1_COL_9_FLOOR_2, density=3136, section=RECTANGULAR
  *sectionpoints
  *beamgeneralsection, elset=ASSEMBLY_PART-1-1_COL_10_FLOOR_2, density=3136, section=RECTANGULAR
  *sectionpoints
  *beamgeneralsection, elset=ASSEMBLY_PART-1-1_COL_11_FLOOR_2, density=3136, section=RECTANGULAR
  *sectionpoints
  *beamgeneralsection, elset=ASSEMBLY_PART-1-1_COL_12_FLOOR_2, density=3136, section=RECTANGULAR
  *sectionpoints
  *beamgeneralsection, elset=ASSEMBLY_PART-1-1_COL_13_FLOOR_2, density=3136, section=RECTANGULAR
  *sectionpoints
  *beamgeneralsection, elset=ASSEMBLY_PART-1-1_COL_14_FLOOR_2, density=3136, section=RECTANGULAR
  *sectionpoints
  *beamgeneralsection, elset=ASSEMBLY_PART-1-1_COL_15_FLOOR_2, density=3136, section=RECTANGULAR
  *sectionpoints
  *beamgeneralsection, elset=ASSEMBLY_PART-1-1_COL_16_FLOOR_2, density=3136, section=RECTANGULAR
  *sectionpoints
  *beamgeneralsection, elset=ASSEMBLY_PART-1-1_COL_1_FLOOR_3, density=3038, section=RECTANGULAR
  *sectionpoints
  *beamgeneralsection, elset=ASSEMBLY_PART-1-1_COL_2_FLOOR_3, density=3038, section=RECTANGULAR
  *sectionpoints
  *beamgeneralsection, elset=ASSEMBLY_PART-1-1_COL_3_FLOOR_3, density=3038, section=RECTANGULAR
  *sectionpoints
  *beamgeneralsection, elset=ASSEMBLY_PART-1-1_COL_4_FLOOR_3, density=3038, section=RECTANGULAR
  *sectionpoints
  *beamgeneralsection, elset=ASSEMBLY_PART-1-1_COL_5_FLOOR_3, density=3038, section=RECTANGULAR
  *sectionpoints
  *beamgeneralsection, elset=ASSEMBLY_PART-1-1_COL_6_FLOOR_3, density=3038, section=RECTANGULAR
  *sectionpoints
  *beamgeneralsection, elset=ASSEMBLY_PART-1-1_COL_7_FLOOR_3, density=3038, section=RECTANGULAR
  *sectionpoints
  *beamgeneralsection, elset=ASSEMBLY_PART-1-1_COL_8_FLOOR_3, density=3038, section=RECTANGULAR
  *sectionpoints
  *beamgeneralsection, elset=ASSEMBLY_PART-1-1_COL_9_FLOOR_3, density=3038, section=RECTANGULAR
  *sectionpoints
  *beamgeneralsection, elset=ASSEMBLY_PART-1-1_COL_10_FLOOR_3, density=3038, section=RECTANGULAR
  *sectionpoints
  *beamgeneralsection, elset=ASSEMBLY_PART-1-1_COL_11_FLOOR_3, density=3038, section=RECTANGULAR
  *sectionpoints
  *beamgeneralsection, elset=ASSEMBLY_PART-1-1_COL_12_FLOOR_3, density=3038, section=RECTANGULAR
  *sectionpoints
  *beamgeneralsection, elset=ASSEMBLY_PART-1-1_COL_13_FLOOR_3, density=3038, section=RECTANGULAR
  *sectionpoints
  *beamgeneralsection, elset=ASSEMBLY_PART-1-1_COL_14_FLOOR_3, density=3038, section=RECTANGULAR
  *sectionpoints
  *beamgeneralsection, elset=ASSEMBLY_PART-1-1_COL_15_FLOOR_3, density=3038, section=RECTANGULAR
  *sectionpoints
  *beamgeneralsection, elset=ASSEMBLY_PART-1-1_COL_16_FLOOR_3, density=3038, section=RECTANGULAR
  *sectionpoints
  *beamgeneralsection, elset=ASSEMBLY_PART-1-1_COL_1_FLOOR_4, density=2582, section=RECTANGULAR
  *sectionpoints
  *beamgeneralsection, elset=ASSEMBLY_PART-1-1_COL_2_FLOOR_4, density=2582, section=RECTANGULAR
  *sectionpoints
  *beamgeneralsection, elset=ASSEMBLY_PART-1-1_COL_3_FLOOR_4, density=2582, section=RECTANGULAR
  *sectionpoints
  *beamgeneralsection, elset=ASSEMBLY_PART-1-1_COL_4_FLOOR_4, density=2582, section=RECTANGULAR
  *sectionpoints
  *beamgeneralsection, elset=ASSEMBLY_PART-1-1_COL_5_FLOOR_4, density=2582, section=RECTANGULAR
  *sectionpoints
  *beamgeneralsection, elset=ASSEMBLY_PART-1-1_COL_6_FLOOR_4, density=2582, section=RECTANGULAR
  *sectionpoints
  *beamgeneralsection, elset=ASSEMBLY_PART-1-1_COL_7_FLOOR_4, density=2582, section=RECTANGULAR
  *sectionpoints
  *beamgeneralsection, elset=ASSEMBLY_PART-1-1_COL_8_FLOOR_4, density=2582, section=RECTANGULAR
  *sectionpoints
  *beamgeneralsection, elset=ASSEMBLY_PART-1-1_COL_9_FLOOR_4, density=2582, section=RECTANGULAR
  *sectionpoints
  *beamgeneralsection, elset=ASSEMBLY_PART-1-1_COL_10_FLOOR_4, density=2582, section=RECTANGULAR
  *sectionpoints
  *beamgeneralsection, elset=ASSEMBLY_PART-1-1_COL_11_FLOOR_4, density=2582, section=RECTANGULAR
  *sectionpoints
  *beamgeneralsection, elset=ASSEMBLY_PART-1-1_COL_12_FLOOR_4, density=2582, section=RECTANGULAR
  *sectionpoints
  *beamgeneralsection, elset=ASSEMBLY_PART-1-1_COL_13_FLOOR_4, density=2582, section=RECTANGULAR
  *sectionpoints
  *beamgeneralsection, elset=ASSEMBLY_PART-1-1_COL_14_FLOOR_4, density=2582, section=RECTANGULAR
  *sectionpoints
  *beamgeneralsection, elset=ASSEMBLY_PART-1-1_COL_15_FLOOR_4, density=2582, section=RECTANGULAR
  *sectionpoints
  *beamgeneralsection, elset=ASSEMBLY_PART-1-1_COL_16_FLOOR_4, density=2582, section=RECTANGULAR
  *sectionpoints
  *beamgeneralsection, elset=ASSEMBLY_PART-1-1_COL_1_FLOOR_5, density=2640, section=RECTANGULAR
  *sectionpoints
  *beamgeneralsection, elset=ASSEMBLY_PART-1-1_COL_2_FLOOR_5, density=2640, section=RECTANGULAR
  *sectionpoints
  *beamgeneralsection, elset=ASSEMBLY_PART-1-1_COL_3_FLOOR_5, density=2640, section=RECTANGULAR
  *sectionpoints
  *beamgeneralsection, elset=ASSEMBLY_PART-1-1_COL_4_FLOOR_5, density=2640, section=RECTANGULAR
  *sectionpoints
  *beamgeneralsection, elset=ASSEMBLY_PART-1-1_COL_5_FLOOR_5, density=2640, section=RECTANGULAR
  *sectionpoints
  *beamgeneralsection, elset=ASSEMBLY_PART-1-1_COL_6_FLOOR_5, density=2640, section=RECTANGULAR
  *sectionpoints
  *beamgeneralsection, elset=ASSEMBLY_PART-1-1_COL_7_FLOOR_5, density=2640, section=RECTANGULAR
  *sectionpoints
  *beamgeneralsection, elset=ASSEMBLY_PART-1-1_COL_8_FLOOR_5, density=2640, section=RECTANGULAR
  *sectionpoints
  *beamgeneralsection, elset=ASSEMBLY_PART-1-1_COL_9_FLOOR_5, density=2640, section=RECTANGULAR
  *sectionpoints
  *beamgeneralsection, elset=ASSEMBLY_PART-1-1_COL_10_FLOOR_5, density=2640, section=RECTANGULAR
  *sectionpoints
  *beamgeneralsection, elset=ASSEMBLY_PART-1-1_COL_11_FLOOR_5, density=2640, section=RECTANGULAR
  *sectionpoints
  *beamgeneralsection, elset=ASSEMBLY_PART-1-1_COL_12_FLOOR_5, density=2640, section=RECTANGULAR
  *sectionpoints
  *beamgeneralsection, elset=ASSEMBLY_PART-1-1_COL_13_FLOOR_5, density=2640, section=RECTANGULAR
  *sectionpoints
  *beamgeneralsection, elset=ASSEMBLY_PART-1-1_COL_14_FLOOR_5, density=2640, section=RECTANGULAR
  *sectionpoints
  *beamgeneralsection, elset=ASSEMBLY_PART-1-1_COL_15_FLOOR_5, density=2640, section=RECTANGULAR
  *sectionpoints
  *beamgeneralsection, elset=ASSEMBLY_PART-1-1_COL_16_FLOOR_5, density=2640, section=RECTANGULAR
  *sectionpoints
  *beamgeneralsection, elset=ASSEMBLY_PART-1-1_COL_1_FLOOR_6, density=2443, section=RECTANGULAR
  *sectionpoints
  *beamgeneralsection, elset=ASSEMBLY_PART-1-1_COL_2_FLOOR_6, density=2443, section=RECTANGULAR
  *sectionpoints
  *beamgeneralsection, elset=ASSEMBLY_PART-1-1_COL_3_FLOOR_6, density=2443, section=RECTANGULAR
  *sectionpoints
  *beamgeneralsection, elset=ASSEMBLY_PART-1-1_COL_4_FLOOR_6, density=2443, section=RECTANGULAR
  *sectionpoints
  *beamgeneralsection, elset=ASSEMBLY_PART-1-1_COL_5_FLOOR_6, density=2443, section=RECTANGULAR
  *sectionpoints
  *beamgeneralsection, elset=ASSEMBLY_PART-1-1_COL_6_FLOOR_6, density=2443, section=RECTANGULAR
  *sectionpoints
  *beamgeneralsection, elset=ASSEMBLY_PART-1-1_COL_7_FLOOR_6, density=2443, section=RECTANGULAR
  *sectionpoints
  *beamgeneralsection, elset=ASSEMBLY_PART-1-1_COL_8_FLOOR_6, density=2443, section=RECTANGULAR
  *sectionpoints
  *beamgeneralsection, elset=ASSEMBLY_PART-1-1_COL_9_FLOOR_6, density=2443, section=RECTANGULAR
  *sectionpoints
  *beamgeneralsection, elset=ASSEMBLY_PART-1-1_COL_10_FLOOR_6, density=2443, section=RECTANGULAR
  *sectionpoints
  *beamgeneralsection, elset=ASSEMBLY_PART-1-1_COL_11_FLOOR_6, density=2443, section=RECTANGULAR
  *sectionpoints
  *beamgeneralsection, elset=ASSEMBLY_PART-1-1_COL_12_FLOOR_6, density=2443, section=RECTANGULAR
  *sectionpoints
  *beamgeneralsection, elset=ASSEMBLY_PART-1-1_COL_13_FLOOR_6, density=2443, section=RECTANGULAR
  *sectionpoints
  *beamgeneralsection, elset=ASSEMBLY_PART-1-1_COL_14_FLOOR_6, density=2443, section=RECTANGULAR
  *sectionpoints
  *beamgeneralsection, elset=ASSEMBLY_PART-1-1_COL_15_FLOOR_6, density=2443, section=RECTANGULAR
  *sectionpoints
  *beamgeneralsection, elset=ASSEMBLY_PART-1-1_COL_16_FLOOR_6, density=2443, section=RECTANGULAR
  *sectionpoints
  *shellsection, elset=ASSEMBLY_PART-1-1_PSHELL_CELLAR, material=CELLAR_MAT
  *shellsection, elset=ASSEMBLY_PART-1-1_STAIRS_FLOOR1, material=STAIRS_1
  *shellsection, elset=ASSEMBLY_PART-1-1_STAIRS_FLOOR2, material=STAIRS_2
  *shellsection, elset=ASSEMBLY_PART-1-1_STAIRS_FLOOR3, material=STAIRS_3
  *shellsection, elset=ASSEMBLY_PART-1-1_STAIRS_FLOOR4, material=STAIRS_4
  *shellsection, elset=ASSEMBLY_PART-1-1_STAIRS_FLOOR5, material=STAIRS_5
  *shellsection, elset=ASSEMBLY_PART-1-1_STAIRS_FLOOR6, material=STAIRS_6
  *shellsection, elset=ASSEMBLY_PART-1-1_STAIRS_CEIL, material=STAIRS_CEIL
  *shellsection, elset=ASSEMBLY_PART-1-1_FLOOR1, material=FLOOR_1
  *shellsection, elset=ASSEMBLY_PART-1-1_FLOOR2, material=FLOOR_2
  *shellsection, elset=ASSEMBLY_PART-1-1_FLOOR3, material=FLOOR_3
  *shellsection, elset=ASSEMBLY_PART-1-1_FLOOR4, material=FLOOR_4
  *shellsection, elset=ASSEMBLY_PART-1-1_FLOOR5, material=FLOOR_5
  *shellsection, elset=ASSEMBLY_PART-1-1_FLOOR6, material=FLOOR_6
  *surface, type=ELEMENT, name=ASSEMBLY_PART-1-1_SIDE_CEIL
  *output, field, variable=PRESELECT
  *output, history, variable=PRESELECT
  *output, field
  *elementoutput, directions=YES
  *output, field, variable=PRESELECT
  *output, history, variable=PRESELECT
  *output, field
  *elementoutput, directions=YES
  *output, field, variable=PRESELECT
  *output, history, variable=PRESELECT
  *output, field
  *elementoutput, directions=YES
  *Step, name=Self_weight
  *output, field, variable=PRESELECT
  *output, history, variable=PRESELECT
  *Step, name=Side_wind
  *output, field
  *Step, name=Self_weight
  *Step, name=Side_wind
  *Step, name=Self_weight
  *static
  *dload

 ***NOTE: ALL ELEMENTS THAT HAVE MASS ARE COLLECTED IN ELEMENT SET 
          _Whole_Model_Gravity_Elset FOR APPLICATION OF GRAVITY LOAD.
  *output, field, variable=PRESELECT
  *output, history, variable=PRESELECT
  *endstep
  *Step, name=Side_wind
  *static
  *dsload
  *output, field
  *elementoutput, directions=YES

 ***WARNING: OUTPUT REQUEST MISESMAX IS NOT AVAILABLE FOR ELEMENT TYPE B31 
             ASSOCIATED WITH A *BEAM GENERAL SECTION DEFINITION

 ***WARNING: OUTPUT REQUEST MISESMAX IS NOT AVAILABLE FOR ELEMENT TYPE B31 
             ASSOCIATED WITH A *BEAM GENERAL SECTION DEFINITION
  *endstep
  *boundary
  *Step, name=Self_weight
  *static
  *output, field, variable=PRESELECT
  *output, history, variable=PRESELECT
  *endstep
  *Step, name=Side_wind
  *static
  *cload
  *cload
  *cload
  *cload
  *cload
  *cload
  *output, field
  *nodeoutput
  *endstep

 ***WARNING: DEGREE OF FREEDOM 4 IS NOT ACTIVE ON NODE 1 INSTANCE PART-1-1 - 
             THIS BOUNDARY CONDITION IS IGNORED

 ***WARNING: DEGREE OF FREEDOM 5 IS NOT ACTIVE ON NODE 1 INSTANCE PART-1-1 - 
             THIS BOUNDARY CONDITION IS IGNORED

 ***WARNING: DEGREE OF FREEDOM 6 IS NOT ACTIVE ON NODE 1 INSTANCE PART-1-1 - 
             THIS BOUNDARY CONDITION IS IGNORED

 ***WARNING: DEGREE OF FREEDOM 4 IS NOT ACTIVE ON NODE 2 INSTANCE PART-1-1 - 
             THIS BOUNDARY CONDITION IS IGNORED

 ***WARNING: DEGREE OF FREEDOM 5 IS NOT ACTIVE ON NODE 2 INSTANCE PART-1-1 - 
             THIS BOUNDARY CONDITION IS IGNORED

 ***WARNING: DEGREE OF FREEDOM 6 IS NOT ACTIVE ON NODE 2 INSTANCE PART-1-1 - 
             THIS BOUNDARY CONDITION IS IGNORED

 ***WARNING: DEGREE OF FREEDOM 4 IS NOT ACTIVE ON NODE 3 INSTANCE PART-1-1 - 
             THIS BOUNDARY CONDITION IS IGNORED

 ***WARNING: DEGREE OF FREEDOM 5 IS NOT ACTIVE ON NODE 3 INSTANCE PART-1-1 - 
             THIS BOUNDARY CONDITION IS IGNORED

 ***WARNING: DEGREE OF FREEDOM 6 IS NOT ACTIVE ON NODE 3 INSTANCE PART-1-1 - 
             THIS BOUNDARY CONDITION IS IGNORED

 ***WARNING: DEGREE OF FREEDOM 4 IS NOT ACTIVE ON NODE 4 INSTANCE PART-1-1 - 
             THIS BOUNDARY CONDITION IS IGNORED

 ***WARNING: DEGREE OF FREEDOM 5 IS NOT ACTIVE ON NODE 4 INSTANCE PART-1-1 - 
             THIS BOUNDARY CONDITION IS IGNORED

 ***WARNING: DEGREE OF FREEDOM 6 IS NOT ACTIVE ON NODE 4 INSTANCE PART-1-1 - 
             THIS BOUNDARY CONDITION IS IGNORED

 ***WARNING: DEGREE OF FREEDOM 4 IS NOT ACTIVE ON NODE 5 INSTANCE PART-1-1 - 
             THIS BOUNDARY CONDITION IS IGNORED

 ***WARNING: DEGREE OF FREEDOM 5 IS NOT ACTIVE ON NODE 5 INSTANCE PART-1-1 - 
             THIS BOUNDARY CONDITION IS IGNORED

 ***WARNING: DEGREE OF FREEDOM 6 IS NOT ACTIVE ON NODE 5 INSTANCE PART-1-1 - 
             THIS BOUNDARY CONDITION IS IGNORED

 ***WARNING: DEGREE OF FREEDOM 4 IS NOT ACTIVE ON NODE 6 INSTANCE PART-1-1 - 
             THIS BOUNDARY CONDITION IS IGNORED

 ***WARNING: DEGREE OF FREEDOM 5 IS NOT ACTIVE ON NODE 6 INSTANCE PART-1-1 - 
             THIS BOUNDARY CONDITION IS IGNORED

 ***WARNING: DEGREE OF FREEDOM 6 IS NOT ACTIVE ON NODE 6 INSTANCE PART-1-1 - 
             THIS BOUNDARY CONDITION IS IGNORED

 ***WARNING: DEGREE OF FREEDOM 4 IS NOT ACTIVE ON NODE 7 INSTANCE PART-1-1 - 
             THIS BOUNDARY CONDITION IS IGNORED

 ***WARNING: DEGREE OF FREEDOM 5 IS NOT ACTIVE ON NODE 7 INSTANCE PART-1-1 - 
             THIS BOUNDARY CONDITION IS IGNORED

 ***WARNING: DEGREE OF FREEDOM 6 IS NOT ACTIVE ON NODE 7 INSTANCE PART-1-1 - 
             THIS BOUNDARY CONDITION IS IGNORED

 ***WARNING: DEGREE OF FREEDOM 4 IS NOT ACTIVE ON NODE 8 INSTANCE PART-1-1 - 
             THIS BOUNDARY CONDITION IS IGNORED

 ***WARNING: DEGREE OF FREEDOM 5 IS NOT ACTIVE ON NODE 8 INSTANCE PART-1-1 - 
             THIS BOUNDARY CONDITION IS IGNORED

 ***WARNING: DEGREE OF FREEDOM 6 IS NOT ACTIVE ON NODE 8 INSTANCE PART-1-1 - 
             THIS BOUNDARY CONDITION IS IGNORED

 ***WARNING: DEGREE OF FREEDOM 4 IS NOT ACTIVE ON NODE 9 INSTANCE PART-1-1 - 
             THIS BOUNDARY CONDITION IS IGNORED

 ***WARNING: DEGREE OF FREEDOM 5 IS NOT ACTIVE ON NODE 9 INSTANCE PART-1-1 - 
             THIS BOUNDARY CONDITION IS IGNORED

 ***WARNING: DEGREE OF FREEDOM 6 IS NOT ACTIVE ON NODE 9 INSTANCE PART-1-1 - 
             THIS BOUNDARY CONDITION IS IGNORED

 ***WARNING: DEGREE OF FREEDOM 4 IS NOT ACTIVE ON NODE 10 INSTANCE PART-1-1 - 
             THIS BOUNDARY CONDITION IS IGNORED

 ***WARNING: DEGREE OF FREEDOM 5 IS NOT ACTIVE ON NODE 10 INSTANCE PART-1-1 - 
             THIS BOUNDARY CONDITION IS IGNORED

 ***WARNING: DEGREE OF FREEDOM 6 IS NOT ACTIVE ON NODE 10 INSTANCE PART-1-1 - 
             THIS BOUNDARY CONDITION IS IGNORED

 ***WARNING: DEGREE OF FREEDOM 4 IS NOT ACTIVE ON NODE 11 INSTANCE PART-1-1 - 
             THIS BOUNDARY CONDITION IS IGNORED

 ***WARNING: DEGREE OF FREEDOM 5 IS NOT ACTIVE ON NODE 11 INSTANCE PART-1-1 - 
             THIS BOUNDARY CONDITION IS IGNORED

 ***WARNING: DEGREE OF FREEDOM 6 IS NOT ACTIVE ON NODE 11 INSTANCE PART-1-1 - 
             THIS BOUNDARY CONDITION IS IGNORED

 ***WARNING: DEGREE OF FREEDOM 4 IS NOT ACTIVE ON NODE 12 INSTANCE PART-1-1 - 
             THIS BOUNDARY CONDITION IS IGNORED

 ***WARNING: DEGREE OF FREEDOM 5 IS NOT ACTIVE ON NODE 12 INSTANCE PART-1-1 - 
             THIS BOUNDARY CONDITION IS IGNORED

 ***WARNING: DEGREE OF FREEDOM 6 IS NOT ACTIVE ON NODE 12 INSTANCE PART-1-1 - 
             THIS BOUNDARY CONDITION IS IGNORED

 ***WARNING: DEGREE OF FREEDOM 4 IS NOT ACTIVE ON NODE 13 INSTANCE PART-1-1 - 
             THIS BOUNDARY CONDITION IS IGNORED

 ***WARNING: DEGREE OF FREEDOM 5 IS NOT ACTIVE ON NODE 13 INSTANCE PART-1-1 - 
             THIS BOUNDARY CONDITION IS IGNORED

 ***WARNING: DEGREE OF FREEDOM 6 IS NOT ACTIVE ON NODE 13 INSTANCE PART-1-1 - 
             THIS BOUNDARY CONDITION IS IGNORED

 ***WARNING: DEGREE OF FREEDOM 4 IS NOT ACTIVE ON NODE 14 INSTANCE PART-1-1 - 
             THIS BOUNDARY CONDITION IS IGNORED

 ***WARNING: DEGREE OF FREEDOM 5 IS NOT ACTIVE ON NODE 14 INSTANCE PART-1-1 - 
             THIS BOUNDARY CONDITION IS IGNORED

 ***WARNING: DEGREE OF FREEDOM 6 IS NOT ACTIVE ON NODE 14 INSTANCE PART-1-1 - 
             THIS BOUNDARY CONDITION IS IGNORED

 ***WARNING: DEGREE OF FREEDOM 4 IS NOT ACTIVE ON NODE 15 INSTANCE PART-1-1 - 
             THIS BOUNDARY CONDITION IS IGNORED

 ***WARNING: DEGREE OF FREEDOM 5 IS NOT ACTIVE ON NODE 15 INSTANCE PART-1-1 - 
             THIS BOUNDARY CONDITION IS IGNORED

 ***WARNING: DEGREE OF FREEDOM 6 IS NOT ACTIVE ON NODE 15 INSTANCE PART-1-1 - 
             THIS BOUNDARY CONDITION IS IGNORED

 ***WARNING: DEGREE OF FREEDOM 4 IS NOT ACTIVE ON NODE 16 INSTANCE PART-1-1 - 
             THIS BOUNDARY CONDITION IS IGNORED

 ***WARNING: DEGREE OF FREEDOM 5 IS NOT ACTIVE ON NODE 16 INSTANCE PART-1-1 - 
             THIS BOUNDARY CONDITION IS IGNORED

 ***WARNING: DEGREE OF FREEDOM 6 IS NOT ACTIVE ON NODE 16 INSTANCE PART-1-1 - 
             THIS BOUNDARY CONDITION IS IGNORED

 ***WARNING: DEGREE OF FREEDOM 4 IS NOT ACTIVE ON NODE 17 INSTANCE PART-1-1 - 
             THIS BOUNDARY CONDITION IS IGNORED

 ***WARNING: DEGREE OF FREEDOM 5 IS NOT ACTIVE ON NODE 17 INSTANCE PART-1-1 - 
             THIS BOUNDARY CONDITION IS IGNORED

 ***WARNING: DEGREE OF FREEDOM 6 IS NOT ACTIVE ON NODE 17 INSTANCE PART-1-1 - 
             THIS BOUNDARY CONDITION IS IGNORED

 ***WARNING: DEGREE OF FREEDOM 4 IS NOT ACTIVE ON NODE 18 INSTANCE PART-1-1 - 
             THIS BOUNDARY CONDITION IS IGNORED

 ***WARNING: DEGREE OF FREEDOM 5 IS NOT ACTIVE ON NODE 18 INSTANCE PART-1-1 - 
             THIS BOUNDARY CONDITION IS IGNORED

 ***WARNING: DEGREE OF FREEDOM 6 IS NOT ACTIVE ON NODE 18 INSTANCE PART-1-1 - 
             THIS BOUNDARY CONDITION IS IGNORED

 ***WARNING: DEGREE OF FREEDOM 4 IS NOT ACTIVE ON NODE 19 INSTANCE PART-1-1 - 
             THIS BOUNDARY CONDITION IS IGNORED

 ***WARNING: DEGREE OF FREEDOM 5 IS NOT ACTIVE ON NODE 19 INSTANCE PART-1-1 - 
             THIS BOUNDARY CONDITION IS IGNORED

 ***WARNING: DEGREE OF FREEDOM 6 IS NOT ACTIVE ON NODE 19 INSTANCE PART-1-1 - 
             THIS BOUNDARY CONDITION IS IGNORED

 ***WARNING: DEGREE OF FREEDOM 4 IS NOT ACTIVE ON NODE 20 INSTANCE PART-1-1 - 
             THIS BOUNDARY CONDITION IS IGNORED

 ***WARNING: DEGREE OF FREEDOM 5 IS NOT ACTIVE ON NODE 20 INSTANCE PART-1-1 - 
             THIS BOUNDARY CONDITION IS IGNORED

 ***WARNING: DEGREE OF FREEDOM 6 IS NOT ACTIVE ON NODE 20 INSTANCE PART-1-1 - 
             THIS BOUNDARY CONDITION IS IGNORED

 ***WARNING: DEGREE OF FREEDOM 4 IS NOT ACTIVE ON NODE 21 INSTANCE PART-1-1 - 
             THIS BOUNDARY CONDITION IS IGNORED

 ***WARNING: DEGREE OF FREEDOM 5 IS NOT ACTIVE ON NODE 21 INSTANCE PART-1-1 - 
             THIS BOUNDARY CONDITION IS IGNORED

 ***WARNING: DEGREE OF FREEDOM 6 IS NOT ACTIVE ON NODE 21 INSTANCE PART-1-1 - 
             THIS BOUNDARY CONDITION IS IGNORED

 ***WARNING: DEGREE OF FREEDOM 4 IS NOT ACTIVE ON NODE 22 INSTANCE PART-1-1 - 
             THIS BOUNDARY CONDITION IS IGNORED

 ***WARNING: DEGREE OF FREEDOM 5 IS NOT ACTIVE ON NODE 22 INSTANCE PART-1-1 - 
             THIS BOUNDARY CONDITION IS IGNORED

 ***WARNING: DEGREE OF FREEDOM 6 IS NOT ACTIVE ON NODE 22 INSTANCE PART-1-1 - 
             THIS BOUNDARY CONDITION IS IGNORED

 ***WARNING: DEGREE OF FREEDOM 4 IS NOT ACTIVE ON NODE 23 INSTANCE PART-1-1 - 
             THIS BOUNDARY CONDITION IS IGNORED

 ***WARNING: DEGREE OF FREEDOM 5 IS NOT ACTIVE ON NODE 23 INSTANCE PART-1-1 - 
             THIS BOUNDARY CONDITION IS IGNORED

 ***WARNING: DEGREE OF FREEDOM 6 IS NOT ACTIVE ON NODE 23 INSTANCE PART-1-1 - 
             THIS BOUNDARY CONDITION IS IGNORED

 ***WARNING: DEGREE OF FREEDOM 4 IS NOT ACTIVE ON NODE 24 INSTANCE PART-1-1 - 
             THIS BOUNDARY CONDITION IS IGNORED

 ***WARNING: DEGREE OF FREEDOM 5 IS NOT ACTIVE ON NODE 24 INSTANCE PART-1-1 - 
             THIS BOUNDARY CONDITION IS IGNORED

 ***WARNING: DEGREE OF FREEDOM 6 IS NOT ACTIVE ON NODE 24 INSTANCE PART-1-1 - 
             THIS BOUNDARY CONDITION IS IGNORED

 ***WARNING: DEGREE OF FREEDOM 4 IS NOT ACTIVE ON NODE 25 INSTANCE PART-1-1 - 
             THIS BOUNDARY CONDITION IS IGNORED

 ***WARNING: DEGREE OF FREEDOM 5 IS NOT ACTIVE ON NODE 25 INSTANCE PART-1-1 - 
             THIS BOUNDARY CONDITION IS IGNORED

 ***WARNING: DEGREE OF FREEDOM 6 IS NOT ACTIVE ON NODE 25 INSTANCE PART-1-1 - 
             THIS BOUNDARY CONDITION IS IGNORED

 ***WARNING: DEGREE OF FREEDOM 4 IS NOT ACTIVE ON NODE 26 INSTANCE PART-1-1 - 
             THIS BOUNDARY CONDITION IS IGNORED

 ***WARNING: DEGREE OF FREEDOM 5 IS NOT ACTIVE ON NODE 26 INSTANCE PART-1-1 - 
             THIS BOUNDARY CONDITION IS IGNORED

 ***WARNING: DEGREE OF FREEDOM 6 IS NOT ACTIVE ON NODE 26 INSTANCE PART-1-1 - 
             THIS BOUNDARY CONDITION IS IGNORED

 ***WARNING: DEGREE OF FREEDOM 4 IS NOT ACTIVE ON NODE 27 INSTANCE PART-1-1 - 
             THIS BOUNDARY CONDITION IS IGNORED

 ***WARNING: DEGREE OF FREEDOM 5 IS NOT ACTIVE ON NODE 27 INSTANCE PART-1-1 - 
             THIS BOUNDARY CONDITION IS IGNORED

 ***WARNING: DEGREE OF FREEDOM 6 IS NOT ACTIVE ON NODE 27 INSTANCE PART-1-1 - 
             THIS BOUNDARY CONDITION IS IGNORED

 ***WARNING: DEGREE OF FREEDOM 4 IS NOT ACTIVE ON NODE 28 INSTANCE PART-1-1 - 
             THIS BOUNDARY CONDITION IS IGNORED

 ***WARNING: DEGREE OF FREEDOM 5 IS NOT ACTIVE ON NODE 28 INSTANCE PART-1-1 - 
             THIS BOUNDARY CONDITION IS IGNORED

 ***WARNING: DEGREE OF FREEDOM 6 IS NOT ACTIVE ON NODE 28 INSTANCE PART-1-1 - 
             THIS BOUNDARY CONDITION IS IGNORED

 ***WARNING: DEGREE OF FREEDOM 4 IS NOT ACTIVE ON NODE 29 INSTANCE PART-1-1 - 
             THIS BOUNDARY CONDITION IS IGNORED

 ***WARNING: DEGREE OF FREEDOM 5 IS NOT ACTIVE ON NODE 29 INSTANCE PART-1-1 - 
             THIS BOUNDARY CONDITION IS IGNORED

 ***WARNING: DEGREE OF FREEDOM 6 IS NOT ACTIVE ON NODE 29 INSTANCE PART-1-1 - 
             THIS BOUNDARY CONDITION IS IGNORED

 ***WARNING: DEGREE OF FREEDOM 4 IS NOT ACTIVE ON NODE 30 INSTANCE PART-1-1 - 
             THIS BOUNDARY CONDITION IS IGNORED

 ***WARNING: DEGREE OF FREEDOM 5 IS NOT ACTIVE ON NODE 30 INSTANCE PART-1-1 - 
             THIS BOUNDARY CONDITION IS IGNORED

 ***WARNING: DEGREE OF FREEDOM 6 IS NOT ACTIVE ON NODE 30 INSTANCE PART-1-1 - 
             THIS BOUNDARY CONDITION IS IGNORED

 ***WARNING: DEGREE OF FREEDOM 4 IS NOT ACTIVE ON NODE 31 INSTANCE PART-1-1 - 
             THIS BOUNDARY CONDITION IS IGNORED

 ***WARNING: DEGREE OF FREEDOM 5 IS NOT ACTIVE ON NODE 31 INSTANCE PART-1-1 - 
             THIS BOUNDARY CONDITION IS IGNORED

 ***WARNING: DEGREE OF FREEDOM 6 IS NOT ACTIVE ON NODE 31 INSTANCE PART-1-1 - 
             THIS BOUNDARY CONDITION IS IGNORED

 ***WARNING: DEGREE OF FREEDOM 4 IS NOT ACTIVE ON NODE 32 INSTANCE PART-1-1 - 
             THIS BOUNDARY CONDITION IS IGNORED

 ***WARNING: DEGREE OF FREEDOM 5 IS NOT ACTIVE ON NODE 32 INSTANCE PART-1-1 - 
             THIS BOUNDARY CONDITION IS IGNORED

 ***WARNING: DEGREE OF FREEDOM 6 IS NOT ACTIVE ON NODE 32 INSTANCE PART-1-1 - 
             THIS BOUNDARY CONDITION IS IGNORED

 ***WARNING: DEGREE OF FREEDOM 4 IS NOT ACTIVE ON NODE 33 INSTANCE PART-1-1 - 
             THIS BOUNDARY CONDITION IS IGNORED

 ***WARNING: DEGREE OF FREEDOM 5 IS NOT ACTIVE ON NODE 33 INSTANCE PART-1-1 - 
             THIS BOUNDARY CONDITION IS IGNORED

 ***WARNING: DEGREE OF FREEDOM 6 IS NOT ACTIVE ON NODE 33 INSTANCE PART-1-1 - 
             THIS BOUNDARY CONDITION IS IGNORED

 ***WARNING: DEGREE OF FREEDOM 4 IS NOT ACTIVE ON NODE 34 INSTANCE PART-1-1 - 
             THIS BOUNDARY CONDITION IS IGNORED

 ***WARNING: DEGREE OF FREEDOM 5 IS NOT ACTIVE ON NODE 34 INSTANCE PART-1-1 - 
             THIS BOUNDARY CONDITION IS IGNORED

 ***WARNING: DEGREE OF FREEDOM 6 IS NOT ACTIVE ON NODE 34 INSTANCE PART-1-1 - 
             THIS BOUNDARY CONDITION IS IGNORED

 ***WARNING: DEGREE OF FREEDOM 4 IS NOT ACTIVE ON NODE 35 INSTANCE PART-1-1 - 
             THIS BOUNDARY CONDITION IS IGNORED

 ***WARNING: DEGREE OF FREEDOM 5 IS NOT ACTIVE ON NODE 35 INSTANCE PART-1-1 - 
             THIS BOUNDARY CONDITION IS IGNORED

 ***WARNING: DEGREE OF FREEDOM 6 IS NOT ACTIVE ON NODE 35 INSTANCE PART-1-1 - 
             THIS BOUNDARY CONDITION IS IGNORED

 ***WARNING: DEGREE OF FREEDOM 4 IS NOT ACTIVE ON NODE 36 INSTANCE PART-1-1 - 
             THIS BOUNDARY CONDITION IS IGNORED

 ***WARNING: DEGREE OF FREEDOM 5 IS NOT ACTIVE ON NODE 36 INSTANCE PART-1-1 - 
             THIS BOUNDARY CONDITION IS IGNORED

 ***WARNING: DEGREE OF FREEDOM 6 IS NOT ACTIVE ON NODE 36 INSTANCE PART-1-1 - 
             THIS BOUNDARY CONDITION IS IGNORED

 ***WARNING: DEGREE OF FREEDOM 4 IS NOT ACTIVE ON NODE 37 INSTANCE PART-1-1 - 
             THIS BOUNDARY CONDITION IS IGNORED

 ***WARNING: DEGREE OF FREEDOM 5 IS NOT ACTIVE ON NODE 37 INSTANCE PART-1-1 - 
             THIS BOUNDARY CONDITION IS IGNORED

 ***WARNING: DEGREE OF FREEDOM 6 IS NOT ACTIVE ON NODE 37 INSTANCE PART-1-1 - 
             THIS BOUNDARY CONDITION IS IGNORED

 ***WARNING: DEGREE OF FREEDOM 4 IS NOT ACTIVE ON NODE 38 INSTANCE PART-1-1 - 
             THIS BOUNDARY CONDITION IS IGNORED

 ***WARNING: DEGREE OF FREEDOM 5 IS NOT ACTIVE ON NODE 38 INSTANCE PART-1-1 - 
             THIS BOUNDARY CONDITION IS IGNORED

 ***WARNING: DEGREE OF FREEDOM 6 IS NOT ACTIVE ON NODE 38 INSTANCE PART-1-1 - 
             THIS BOUNDARY CONDITION IS IGNORED

 ***WARNING: DEGREE OF FREEDOM 4 IS NOT ACTIVE ON NODE 39 INSTANCE PART-1-1 - 
             THIS BOUNDARY CONDITION IS IGNORED

 ***WARNING: DEGREE OF FREEDOM 5 IS NOT ACTIVE ON NODE 39 INSTANCE PART-1-1 - 
             THIS BOUNDARY CONDITION IS IGNORED

 ***WARNING: DEGREE OF FREEDOM 6 IS NOT ACTIVE ON NODE 39 INSTANCE PART-1-1 - 
             THIS BOUNDARY CONDITION IS IGNORED

 ***WARNING: DEGREE OF FREEDOM 4 IS NOT ACTIVE ON NODE 40 INSTANCE PART-1-1 - 
             THIS BOUNDARY CONDITION IS IGNORED

 ***WARNING: DEGREE OF FREEDOM 5 IS NOT ACTIVE ON NODE 40 INSTANCE PART-1-1 - 
             THIS BOUNDARY CONDITION IS IGNORED

 ***WARNING: DEGREE OF FREEDOM 6 IS NOT ACTIVE ON NODE 40 INSTANCE PART-1-1 - 
             THIS BOUNDARY CONDITION IS IGNORED

 ***WARNING: DEGREE OF FREEDOM 4 IS NOT ACTIVE ON NODE 41 INSTANCE PART-1-1 - 
             THIS BOUNDARY CONDITION IS IGNORED

 ***WARNING: DEGREE OF FREEDOM 5 IS NOT ACTIVE ON NODE 41 INSTANCE PART-1-1 - 
             THIS BOUNDARY CONDITION IS IGNORED

 ***WARNING: DEGREE OF FREEDOM 6 IS NOT ACTIVE ON NODE 41 INSTANCE PART-1-1 - 
             THIS BOUNDARY CONDITION IS IGNORED

 ***WARNING: DEGREE OF FREEDOM 4 IS NOT ACTIVE ON NODE 42 INSTANCE PART-1-1 - 
             THIS BOUNDARY CONDITION IS IGNORED

 ***WARNING: DEGREE OF FREEDOM 5 IS NOT ACTIVE ON NODE 42 INSTANCE PART-1-1 - 
             THIS BOUNDARY CONDITION IS IGNORED

 ***WARNING: DEGREE OF FREEDOM 6 IS NOT ACTIVE ON NODE 42 INSTANCE PART-1-1 - 
             THIS BOUNDARY CONDITION IS IGNORED

 ***WARNING: DEGREE OF FREEDOM 4 IS NOT ACTIVE ON NODE 43 INSTANCE PART-1-1 - 
             THIS BOUNDARY CONDITION IS IGNORED

 ***WARNING: DEGREE OF FREEDOM 5 IS NOT ACTIVE ON NODE 43 INSTANCE PART-1-1 - 
             THIS BOUNDARY CONDITION IS IGNORED

 ***WARNING: DEGREE OF FREEDOM 6 IS NOT ACTIVE ON NODE 43 INSTANCE PART-1-1 - 
             THIS BOUNDARY CONDITION IS IGNORED

 ***WARNING: DEGREE OF FREEDOM 4 IS NOT ACTIVE ON NODE 44 INSTANCE PART-1-1 - 
             THIS BOUNDARY CONDITION IS IGNORED

 ***WARNING: DEGREE OF FREEDOM 5 IS NOT ACTIVE ON NODE 44 INSTANCE PART-1-1 - 
             THIS BOUNDARY CONDITION IS IGNORED

 ***WARNING: DEGREE OF FREEDOM 6 IS NOT ACTIVE ON NODE 44 INSTANCE PART-1-1 - 
             THIS BOUNDARY CONDITION IS IGNORED

 ***WARNING: DEGREE OF FREEDOM 4 IS NOT ACTIVE ON NODE 45 INSTANCE PART-1-1 - 
             THIS BOUNDARY CONDITION IS IGNORED

 ***WARNING: DEGREE OF FREEDOM 5 IS NOT ACTIVE ON NODE 45 INSTANCE PART-1-1 - 
             THIS BOUNDARY CONDITION IS IGNORED

 ***WARNING: DEGREE OF FREEDOM 6 IS NOT ACTIVE ON NODE 45 INSTANCE PART-1-1 - 
             THIS BOUNDARY CONDITION IS IGNORED

 ***WARNING: DEGREE OF FREEDOM 4 IS NOT ACTIVE ON NODE 46 INSTANCE PART-1-1 - 
             THIS BOUNDARY CONDITION IS IGNORED

 ***WARNING: DEGREE OF FREEDOM 5 IS NOT ACTIVE ON NODE 46 INSTANCE PART-1-1 - 
             THIS BOUNDARY CONDITION IS IGNORED

 ***WARNING: DEGREE OF FREEDOM 6 IS NOT ACTIVE ON NODE 46 INSTANCE PART-1-1 - 
             THIS BOUNDARY CONDITION IS IGNORED

 ***WARNING: DEGREE OF FREEDOM 4 IS NOT ACTIVE ON NODE 47 INSTANCE PART-1-1 - 
             THIS BOUNDARY CONDITION IS IGNORED

 ***WARNING: DEGREE OF FREEDOM 5 IS NOT ACTIVE ON NODE 47 INSTANCE PART-1-1 - 
             THIS BOUNDARY CONDITION IS IGNORED

 ***WARNING: DEGREE OF FREEDOM 6 IS NOT ACTIVE ON NODE 47 INSTANCE PART-1-1 - 
             THIS BOUNDARY CONDITION IS IGNORED

 ***WARNING: DEGREE OF FREEDOM 4 IS NOT ACTIVE ON NODE 48 INSTANCE PART-1-1 - 
             THIS BOUNDARY CONDITION IS IGNORED

 ***WARNING: DEGREE OF FREEDOM 5 IS NOT ACTIVE ON NODE 48 INSTANCE PART-1-1 - 
             THIS BOUNDARY CONDITION IS IGNORED

 ***WARNING: DEGREE OF FREEDOM 6 IS NOT ACTIVE ON NODE 48 INSTANCE PART-1-1 - 
             THIS BOUNDARY CONDITION IS IGNORED

 ***WARNING: DEGREE OF FREEDOM 4 IS NOT ACTIVE ON NODE 49 INSTANCE PART-1-1 - 
             THIS BOUNDARY CONDITION IS IGNORED

 ***WARNING: DEGREE OF FREEDOM 5 IS NOT ACTIVE ON NODE 49 INSTANCE PART-1-1 - 
             THIS BOUNDARY CONDITION IS IGNORED

 ***WARNING: DEGREE OF FREEDOM 6 IS NOT ACTIVE ON NODE 49 INSTANCE PART-1-1 - 
             THIS BOUNDARY CONDITION IS IGNORED

 ***WARNING: DEGREE OF FREEDOM 4 IS NOT ACTIVE ON NODE 50 INSTANCE PART-1-1 - 
             THIS BOUNDARY CONDITION IS IGNORED

 ***WARNING: DEGREE OF FREEDOM 5 IS NOT ACTIVE ON NODE 50 INSTANCE PART-1-1 - 
             THIS BOUNDARY CONDITION IS IGNORED

 ***WARNING: DEGREE OF FREEDOM 6 IS NOT ACTIVE ON NODE 50 INSTANCE PART-1-1 - 
             THIS BOUNDARY CONDITION IS IGNORED

 ***WARNING: DEGREE OF FREEDOM 4 IS NOT ACTIVE ON NODE 51 INSTANCE PART-1-1 - 
             THIS BOUNDARY CONDITION IS IGNORED

 ***WARNING: DEGREE OF FREEDOM 5 IS NOT ACTIVE ON NODE 51 INSTANCE PART-1-1 - 
             THIS BOUNDARY CONDITION IS IGNORED

 ***WARNING: DEGREE OF FREEDOM 6 IS NOT ACTIVE ON NODE 51 INSTANCE PART-1-1 - 
             THIS BOUNDARY CONDITION IS IGNORED

 ***WARNING: DEGREE OF FREEDOM 4 IS NOT ACTIVE ON NODE 52 INSTANCE PART-1-1 - 
             THIS BOUNDARY CONDITION IS IGNORED

 ***WARNING: DEGREE OF FREEDOM 5 IS NOT ACTIVE ON NODE 52 INSTANCE PART-1-1 - 
             THIS BOUNDARY CONDITION IS IGNORED

 ***WARNING: DEGREE OF FREEDOM 6 IS NOT ACTIVE ON NODE 52 INSTANCE PART-1-1 - 
             THIS BOUNDARY CONDITION IS IGNORED

 ***WARNING: DEGREE OF FREEDOM 4 IS NOT ACTIVE ON NODE 53 INSTANCE PART-1-1 - 
             THIS BOUNDARY CONDITION IS IGNORED

 ***WARNING: DEGREE OF FREEDOM 5 IS NOT ACTIVE ON NODE 53 INSTANCE PART-1-1 - 
             THIS BOUNDARY CONDITION IS IGNORED

 ***WARNING: DEGREE OF FREEDOM 6 IS NOT ACTIVE ON NODE 53 INSTANCE PART-1-1 - 
             THIS BOUNDARY CONDITION IS IGNORED

 ***WARNING: DEGREE OF FREEDOM 4 IS NOT ACTIVE ON NODE 54 INSTANCE PART-1-1 - 
             THIS BOUNDARY CONDITION IS IGNORED

 ***WARNING: DEGREE OF FREEDOM 5 IS NOT ACTIVE ON NODE 54 INSTANCE PART-1-1 - 
             THIS BOUNDARY CONDITION IS IGNORED

 ***WARNING: DEGREE OF FREEDOM 6 IS NOT ACTIVE ON NODE 54 INSTANCE PART-1-1 - 
             THIS BOUNDARY CONDITION IS IGNORED

 ***WARNING: DEGREE OF FREEDOM 4 IS NOT ACTIVE ON NODE 55 INSTANCE PART-1-1 - 
             THIS BOUNDARY CONDITION IS IGNORED

 ***WARNING: DEGREE OF FREEDOM 5 IS NOT ACTIVE ON NODE 55 INSTANCE PART-1-1 - 
             THIS BOUNDARY CONDITION IS IGNORED

 ***WARNING: DEGREE OF FREEDOM 6 IS NOT ACTIVE ON NODE 55 INSTANCE PART-1-1 - 
             THIS BOUNDARY CONDITION IS IGNORED

 ***WARNING: DEGREE OF FREEDOM 4 IS NOT ACTIVE ON NODE 56 INSTANCE PART-1-1 - 
             THIS BOUNDARY CONDITION IS IGNORED

 ***WARNING: DEGREE OF FREEDOM 5 IS NOT ACTIVE ON NODE 56 INSTANCE PART-1-1 - 
             THIS BOUNDARY CONDITION IS IGNORED

 ***WARNING: DEGREE OF FREEDOM 6 IS NOT ACTIVE ON NODE 56 INSTANCE PART-1-1 - 
             THIS BOUNDARY CONDITION IS IGNORED

 ***WARNING: DEGREE OF FREEDOM 4 IS NOT ACTIVE ON NODE 57 INSTANCE PART-1-1 - 
             THIS BOUNDARY CONDITION IS IGNORED

 ***WARNING: DEGREE OF FREEDOM 5 IS NOT ACTIVE ON NODE 57 INSTANCE PART-1-1 - 
             THIS BOUNDARY CONDITION IS IGNORED

 ***WARNING: DEGREE OF FREEDOM 6 IS NOT ACTIVE ON NODE 57 INSTANCE PART-1-1 - 
             THIS BOUNDARY CONDITION IS IGNORED

 ***WARNING: DEGREE OF FREEDOM 4 IS NOT ACTIVE ON NODE 58 INSTANCE PART-1-1 - 
             THIS BOUNDARY CONDITION IS IGNORED

 ***WARNING: DEGREE OF FREEDOM 5 IS NOT ACTIVE ON NODE 58 INSTANCE PART-1-1 - 
             THIS BOUNDARY CONDITION IS IGNORED

 ***WARNING: DEGREE OF FREEDOM 6 IS NOT ACTIVE ON NODE 58 INSTANCE PART-1-1 - 
             THIS BOUNDARY CONDITION IS IGNORED

 ***WARNING: DEGREE OF FREEDOM 4 IS NOT ACTIVE ON NODE 59 INSTANCE PART-1-1 - 
             THIS BOUNDARY CONDITION IS IGNORED

 ***WARNING: DEGREE OF FREEDOM 5 IS NOT ACTIVE ON NODE 59 INSTANCE PART-1-1 - 
             THIS BOUNDARY CONDITION IS IGNORED

 ***WARNING: DEGREE OF FREEDOM 6 IS NOT ACTIVE ON NODE 59 INSTANCE PART-1-1 - 
             THIS BOUNDARY CONDITION IS IGNORED

 ***WARNING: DEGREE OF FREEDOM 4 IS NOT ACTIVE ON NODE 60 INSTANCE PART-1-1 - 
             THIS BOUNDARY CONDITION IS IGNORED

 ***WARNING: DEGREE OF FREEDOM 5 IS NOT ACTIVE ON NODE 60 INSTANCE PART-1-1 - 
             THIS BOUNDARY CONDITION IS IGNORED

 ***WARNING: DEGREE OF FREEDOM 6 IS NOT ACTIVE ON NODE 60 INSTANCE PART-1-1 - 
             THIS BOUNDARY CONDITION IS IGNORED

 ***WARNING: DEGREE OF FREEDOM 4 IS NOT ACTIVE ON NODE 61 INSTANCE PART-1-1 - 
             THIS BOUNDARY CONDITION IS IGNORED

 ***WARNING: DEGREE OF FREEDOM 5 IS NOT ACTIVE ON NODE 61 INSTANCE PART-1-1 - 
             THIS BOUNDARY CONDITION IS IGNORED

 ***WARNING: DEGREE OF FREEDOM 6 IS NOT ACTIVE ON NODE 61 INSTANCE PART-1-1 - 
             THIS BOUNDARY CONDITION IS IGNORED

 ***WARNING: DEGREE OF FREEDOM 4 IS NOT ACTIVE ON NODE 62 INSTANCE PART-1-1 - 
             THIS BOUNDARY CONDITION IS IGNORED

 ***WARNING: DEGREE OF FREEDOM 5 IS NOT ACTIVE ON NODE 62 INSTANCE PART-1-1 - 
             THIS BOUNDARY CONDITION IS IGNORED

 ***WARNING: DEGREE OF FREEDOM 6 IS NOT ACTIVE ON NODE 62 INSTANCE PART-1-1 - 
             THIS BOUNDARY CONDITION IS IGNORED

 ***WARNING: DEGREE OF FREEDOM 4 IS NOT ACTIVE ON NODE 63 INSTANCE PART-1-1 - 
             THIS BOUNDARY CONDITION IS IGNORED

 ***WARNING: DEGREE OF FREEDOM 5 IS NOT ACTIVE ON NODE 63 INSTANCE PART-1-1 - 
             THIS BOUNDARY CONDITION IS IGNORED

 ***WARNING: DEGREE OF FREEDOM 6 IS NOT ACTIVE ON NODE 63 INSTANCE PART-1-1 - 
             THIS BOUNDARY CONDITION IS IGNORED

 ***WARNING: DEGREE OF FREEDOM 4 IS NOT ACTIVE ON NODE 64 INSTANCE PART-1-1 - 
             THIS BOUNDARY CONDITION IS IGNORED

 ***WARNING: DEGREE OF FREEDOM 5 IS NOT ACTIVE ON NODE 64 INSTANCE PART-1-1 - 
             THIS BOUNDARY CONDITION IS IGNORED

 ***WARNING: DEGREE OF FREEDOM 6 IS NOT ACTIVE ON NODE 64 INSTANCE PART-1-1 - 
             THIS BOUNDARY CONDITION IS IGNORED

 ***WARNING: DEGREE OF FREEDOM 4 IS NOT ACTIVE ON NODE 65 INSTANCE PART-1-1 - 
             THIS BOUNDARY CONDITION IS IGNORED

 ***WARNING: DEGREE OF FREEDOM 5 IS NOT ACTIVE ON NODE 65 INSTANCE PART-1-1 - 
             THIS BOUNDARY CONDITION IS IGNORED

 ***WARNING: DEGREE OF FREEDOM 6 IS NOT ACTIVE ON NODE 65 INSTANCE PART-1-1 - 
             THIS BOUNDARY CONDITION IS IGNORED

 ***WARNING: DEGREE OF FREEDOM 4 IS NOT ACTIVE ON NODE 66 INSTANCE PART-1-1 - 
             THIS BOUNDARY CONDITION IS IGNORED

 ***WARNING: DEGREE OF FREEDOM 5 IS NOT ACTIVE ON NODE 66 INSTANCE PART-1-1 - 
             THIS BOUNDARY CONDITION IS IGNORED

 ***WARNING: DEGREE OF FREEDOM 6 IS NOT ACTIVE ON NODE 66 INSTANCE PART-1-1 - 
             THIS BOUNDARY CONDITION IS IGNORED

 ***WARNING: DEGREE OF FREEDOM 4 IS NOT ACTIVE ON NODE 67 INSTANCE PART-1-1 - 
             THIS BOUNDARY CONDITION IS IGNORED

 ***WARNING: DEGREE OF FREEDOM 5 IS NOT ACTIVE ON NODE 67 INSTANCE PART-1-1 - 
             THIS BOUNDARY CONDITION IS IGNORED

 ***WARNING: DEGREE OF FREEDOM 6 IS NOT ACTIVE ON NODE 67 INSTANCE PART-1-1 - 
             THIS BOUNDARY CONDITION IS IGNORED

 ***WARNING: DEGREE OF FREEDOM 4 IS NOT ACTIVE ON NODE 68 INSTANCE PART-1-1 - 
             THIS BOUNDARY CONDITION IS IGNORED

 ***WARNING: DEGREE OF FREEDOM 5 IS NOT ACTIVE ON NODE 68 INSTANCE PART-1-1 - 
             THIS BOUNDARY CONDITION IS IGNORED

 ***WARNING: DEGREE OF FREEDOM 6 IS NOT ACTIVE ON NODE 68 INSTANCE PART-1-1 - 
             THIS BOUNDARY CONDITION IS IGNORED

 ***WARNING: DEGREE OF FREEDOM 4 IS NOT ACTIVE ON NODE 69 INSTANCE PART-1-1 - 
             THIS BOUNDARY CONDITION IS IGNORED

 ***WARNING: DEGREE OF FREEDOM 5 IS NOT ACTIVE ON NODE 69 INSTANCE PART-1-1 - 
             THIS BOUNDARY CONDITION IS IGNORED

 ***WARNING: DEGREE OF FREEDOM 6 IS NOT ACTIVE ON NODE 69 INSTANCE PART-1-1 - 
             THIS BOUNDARY CONDITION IS IGNORED

 ***WARNING: DEGREE OF FREEDOM 4 IS NOT ACTIVE ON NODE 70 INSTANCE PART-1-1 - 
             THIS BOUNDARY CONDITION IS IGNORED

 ***WARNING: DEGREE OF FREEDOM 5 IS NOT ACTIVE ON NODE 70 INSTANCE PART-1-1 - 
             THIS BOUNDARY CONDITION IS IGNORED

 ***WARNING: DEGREE OF FREEDOM 6 IS NOT ACTIVE ON NODE 70 INSTANCE PART-1-1 - 
             THIS BOUNDARY CONDITION IS IGNORED

 ***WARNING: DEGREE OF FREEDOM 4 IS NOT ACTIVE ON NODE 71 INSTANCE PART-1-1 - 
             THIS BOUNDARY CONDITION IS IGNORED

 ***WARNING: DEGREE OF FREEDOM 5 IS NOT ACTIVE ON NODE 71 INSTANCE PART-1-1 - 
             THIS BOUNDARY CONDITION IS IGNORED

 ***WARNING: DEGREE OF FREEDOM 6 IS NOT ACTIVE ON NODE 71 INSTANCE PART-1-1 - 
             THIS BOUNDARY CONDITION IS IGNORED

 ***WARNING: DEGREE OF FREEDOM 4 IS NOT ACTIVE ON NODE 72 INSTANCE PART-1-1 - 
             THIS BOUNDARY CONDITION IS IGNORED

 ***WARNING: DEGREE OF FREEDOM 5 IS NOT ACTIVE ON NODE 72 INSTANCE PART-1-1 - 
             THIS BOUNDARY CONDITION IS IGNORED

 ***WARNING: DEGREE OF FREEDOM 6 IS NOT ACTIVE ON NODE 72 INSTANCE PART-1-1 - 
             THIS BOUNDARY CONDITION IS IGNORED

 ***WARNING: DEGREE OF FREEDOM 4 IS NOT ACTIVE ON NODE 73 INSTANCE PART-1-1 - 
             THIS BOUNDARY CONDITION IS IGNORED

 ***WARNING: DEGREE OF FREEDOM 5 IS NOT ACTIVE ON NODE 73 INSTANCE PART-1-1 - 
             THIS BOUNDARY CONDITION IS IGNORED

 ***WARNING: DEGREE OF FREEDOM 6 IS NOT ACTIVE ON NODE 73 INSTANCE PART-1-1 - 
             THIS BOUNDARY CONDITION IS IGNORED

 ***WARNING: DEGREE OF FREEDOM 4 IS NOT ACTIVE ON NODE 74 INSTANCE PART-1-1 - 
             THIS BOUNDARY CONDITION IS IGNORED

 ***WARNING: DEGREE OF FREEDOM 5 IS NOT ACTIVE ON NODE 74 INSTANCE PART-1-1 - 
             THIS BOUNDARY CONDITION IS IGNORED

 ***WARNING: DEGREE OF FREEDOM 6 IS NOT ACTIVE ON NODE 74 INSTANCE PART-1-1 - 
             THIS BOUNDARY CONDITION IS IGNORED

 ***WARNING: DEGREE OF FREEDOM 4 IS NOT ACTIVE ON NODE 75 INSTANCE PART-1-1 - 
             THIS BOUNDARY CONDITION IS IGNORED

 ***WARNING: DEGREE OF FREEDOM 5 IS NOT ACTIVE ON NODE 75 INSTANCE PART-1-1 - 
             THIS BOUNDARY CONDITION IS IGNORED

 ***WARNING: DEGREE OF FREEDOM 6 IS NOT ACTIVE ON NODE 75 INSTANCE PART-1-1 - 
             THIS BOUNDARY CONDITION IS IGNORED

 ***WARNING: DEGREE OF FREEDOM 4 IS NOT ACTIVE ON NODE 76 INSTANCE PART-1-1 - 
             THIS BOUNDARY CONDITION IS IGNORED

 ***WARNING: DEGREE OF FREEDOM 5 IS NOT ACTIVE ON NODE 76 INSTANCE PART-1-1 - 
             THIS BOUNDARY CONDITION IS IGNORED

 ***WARNING: DEGREE OF FREEDOM 6 IS NOT ACTIVE ON NODE 76 INSTANCE PART-1-1 - 
             THIS BOUNDARY CONDITION IS IGNORED

 ***WARNING: DEGREE OF FREEDOM 4 IS NOT ACTIVE ON NODE 77 INSTANCE PART-1-1 - 
             THIS BOUNDARY CONDITION IS IGNORED

 ***WARNING: DEGREE OF FREEDOM 5 IS NOT ACTIVE ON NODE 77 INSTANCE PART-1-1 - 
             THIS BOUNDARY CONDITION IS IGNORED

 ***WARNING: DEGREE OF FREEDOM 6 IS NOT ACTIVE ON NODE 77 INSTANCE PART-1-1 - 
             THIS BOUNDARY CONDITION IS IGNORED

 ***WARNING: DEGREE OF FREEDOM 4 IS NOT ACTIVE ON NODE 78 INSTANCE PART-1-1 - 
             THIS BOUNDARY CONDITION IS IGNORED

 ***WARNING: DEGREE OF FREEDOM 5 IS NOT ACTIVE ON NODE 78 INSTANCE PART-1-1 - 
             THIS BOUNDARY CONDITION IS IGNORED

 ***WARNING: DEGREE OF FREEDOM 6 IS NOT ACTIVE ON NODE 78 INSTANCE PART-1-1 - 
             THIS BOUNDARY CONDITION IS IGNORED

 ***WARNING: DEGREE OF FREEDOM 4 IS NOT ACTIVE ON NODE 79 INSTANCE PART-1-1 - 
             THIS BOUNDARY CONDITION IS IGNORED

 ***WARNING: DEGREE OF FREEDOM 5 IS NOT ACTIVE ON NODE 79 INSTANCE PART-1-1 - 
             THIS BOUNDARY CONDITION IS IGNORED

 ***WARNING: DEGREE OF FREEDOM 6 IS NOT ACTIVE ON NODE 79 INSTANCE PART-1-1 - 
             THIS BOUNDARY CONDITION IS IGNORED

 ***WARNING: DEGREE OF FREEDOM 4 IS NOT ACTIVE ON NODE 80 INSTANCE PART-1-1 - 
             THIS BOUNDARY CONDITION IS IGNORED

 ***WARNING: DEGREE OF FREEDOM 5 IS NOT ACTIVE ON NODE 80 INSTANCE PART-1-1 - 
             THIS BOUNDARY CONDITION IS IGNORED

 ***WARNING: DEGREE OF FREEDOM 6 IS NOT ACTIVE ON NODE 80 INSTANCE PART-1-1 - 
             THIS BOUNDARY CONDITION IS IGNORED

 ***WARNING: DEGREE OF FREEDOM 4 IS NOT ACTIVE ON NODE 81 INSTANCE PART-1-1 - 
             THIS BOUNDARY CONDITION IS IGNORED

 ***WARNING: DEGREE OF FREEDOM 5 IS NOT ACTIVE ON NODE 81 INSTANCE PART-1-1 - 
             THIS BOUNDARY CONDITION IS IGNORED

 ***WARNING: DEGREE OF FREEDOM 6 IS NOT ACTIVE ON NODE 81 INSTANCE PART-1-1 - 
             THIS BOUNDARY CONDITION IS IGNORED

 ***WARNING: DEGREE OF FREEDOM 4 IS NOT ACTIVE ON NODE 82 INSTANCE PART-1-1 - 
             THIS BOUNDARY CONDITION IS IGNORED

 ***WARNING: DEGREE OF FREEDOM 5 IS NOT ACTIVE ON NODE 82 INSTANCE PART-1-1 - 
             THIS BOUNDARY CONDITION IS IGNORED

 ***WARNING: DEGREE OF FREEDOM 6 IS NOT ACTIVE ON NODE 82 INSTANCE PART-1-1 - 
             THIS BOUNDARY CONDITION IS IGNORED

 ***WARNING: DEGREE OF FREEDOM 4 IS NOT ACTIVE ON NODE 83 INSTANCE PART-1-1 - 
             THIS BOUNDARY CONDITION IS IGNORED

 ***WARNING: DEGREE OF FREEDOM 5 IS NOT ACTIVE ON NODE 83 INSTANCE PART-1-1 - 
             THIS BOUNDARY CONDITION IS IGNORED

 ***WARNING: DEGREE OF FREEDOM 6 IS NOT ACTIVE ON NODE 83 INSTANCE PART-1-1 - 
             THIS BOUNDARY CONDITION IS IGNORED

 ***WARNING: DEGREE OF FREEDOM 4 IS NOT ACTIVE ON NODE 84 INSTANCE PART-1-1 - 
             THIS BOUNDARY CONDITION IS IGNORED

 ***WARNING: DEGREE OF FREEDOM 5 IS NOT ACTIVE ON NODE 84 INSTANCE PART-1-1 - 
             THIS BOUNDARY CONDITION IS IGNORED

 ***WARNING: DEGREE OF FREEDOM 6 IS NOT ACTIVE ON NODE 84 INSTANCE PART-1-1 - 
             THIS BOUNDARY CONDITION IS IGNORED

 ***WARNING: DEGREE OF FREEDOM 4 IS NOT ACTIVE ON NODE 85 INSTANCE PART-1-1 - 
             THIS BOUNDARY CONDITION IS IGNORED

 ***WARNING: DEGREE OF FREEDOM 5 IS NOT ACTIVE ON NODE 85 INSTANCE PART-1-1 - 
             THIS BOUNDARY CONDITION IS IGNORED

 ***WARNING: DEGREE OF FREEDOM 6 IS NOT ACTIVE ON NODE 85 INSTANCE PART-1-1 - 
             THIS BOUNDARY CONDITION IS IGNORED

 ***WARNING: DEGREE OF FREEDOM 4 IS NOT ACTIVE ON NODE 86 INSTANCE PART-1-1 - 
             THIS BOUNDARY CONDITION IS IGNORED

 ***WARNING: DEGREE OF FREEDOM 5 IS NOT ACTIVE ON NODE 86 INSTANCE PART-1-1 - 
             THIS BOUNDARY CONDITION IS IGNORED

 ***WARNING: DEGREE OF FREEDOM 6 IS NOT ACTIVE ON NODE 86 INSTANCE PART-1-1 - 
             THIS BOUNDARY CONDITION IS IGNORED

 ***WARNING: DEGREE OF FREEDOM 4 IS NOT ACTIVE ON NODE 87 INSTANCE PART-1-1 - 
             THIS BOUNDARY CONDITION IS IGNORED

 ***WARNING: DEGREE OF FREEDOM 5 IS NOT ACTIVE ON NODE 87 INSTANCE PART-1-1 - 
             THIS BOUNDARY CONDITION IS IGNORED

 ***WARNING: DEGREE OF FREEDOM 6 IS NOT ACTIVE ON NODE 87 INSTANCE PART-1-1 - 
             THIS BOUNDARY CONDITION IS IGNORED

 ***WARNING: DEGREE OF FREEDOM 4 IS NOT ACTIVE ON NODE 88 INSTANCE PART-1-1 - 
             THIS BOUNDARY CONDITION IS IGNORED

 ***WARNING: DEGREE OF FREEDOM 5 IS NOT ACTIVE ON NODE 88 INSTANCE PART-1-1 - 
             THIS BOUNDARY CONDITION IS IGNORED

 ***WARNING: DEGREE OF FREEDOM 6 IS NOT ACTIVE ON NODE 88 INSTANCE PART-1-1 - 
             THIS BOUNDARY CONDITION IS IGNORED

 ***WARNING: DEGREE OF FREEDOM 4 IS NOT ACTIVE ON NODE 89 INSTANCE PART-1-1 - 
             THIS BOUNDARY CONDITION IS IGNORED

 ***WARNING: DEGREE OF FREEDOM 5 IS NOT ACTIVE ON NODE 89 INSTANCE PART-1-1 - 
             THIS BOUNDARY CONDITION IS IGNORED

 ***WARNING: DEGREE OF FREEDOM 6 IS NOT ACTIVE ON NODE 89 INSTANCE PART-1-1 - 
             THIS BOUNDARY CONDITION IS IGNORED

 ***WARNING: DEGREE OF FREEDOM 4 IS NOT ACTIVE ON NODE 90 INSTANCE PART-1-1 - 
             THIS BOUNDARY CONDITION IS IGNORED

 ***WARNING: DEGREE OF FREEDOM 5 IS NOT ACTIVE ON NODE 90 INSTANCE PART-1-1 - 
             THIS BOUNDARY CONDITION IS IGNORED

 ***WARNING: DEGREE OF FREEDOM 6 IS NOT ACTIVE ON NODE 90 INSTANCE PART-1-1 - 
             THIS BOUNDARY CONDITION IS IGNORED

 ***WARNING: DEGREE OF FREEDOM 4 IS NOT ACTIVE ON NODE 91 INSTANCE PART-1-1 - 
             THIS BOUNDARY CONDITION IS IGNORED

 ***WARNING: DEGREE OF FREEDOM 5 IS NOT ACTIVE ON NODE 91 INSTANCE PART-1-1 - 
             THIS BOUNDARY CONDITION IS IGNORED

 ***WARNING: DEGREE OF FREEDOM 6 IS NOT ACTIVE ON NODE 91 INSTANCE PART-1-1 - 
             THIS BOUNDARY CONDITION IS IGNORED

 ***WARNING: DEGREE OF FREEDOM 4 IS NOT ACTIVE ON NODE 92 INSTANCE PART-1-1 - 
             THIS BOUNDARY CONDITION IS IGNORED

 ***WARNING: DEGREE OF FREEDOM 5 IS NOT ACTIVE ON NODE 92 INSTANCE PART-1-1 - 
             THIS BOUNDARY CONDITION IS IGNORED

 ***WARNING: DEGREE OF FREEDOM 6 IS NOT ACTIVE ON NODE 92 INSTANCE PART-1-1 - 
             THIS BOUNDARY CONDITION IS IGNORED

 ***WARNING: DEGREE OF FREEDOM 4 IS NOT ACTIVE ON NODE 93 INSTANCE PART-1-1 - 
             THIS BOUNDARY CONDITION IS IGNORED

 ***WARNING: DEGREE OF FREEDOM 5 IS NOT ACTIVE ON NODE 93 INSTANCE PART-1-1 - 
             THIS BOUNDARY CONDITION IS IGNORED

 ***WARNING: DEGREE OF FREEDOM 6 IS NOT ACTIVE ON NODE 93 INSTANCE PART-1-1 - 
             THIS BOUNDARY CONDITION IS IGNORED

 ***WARNING: DEGREE OF FREEDOM 4 IS NOT ACTIVE ON NODE 94 INSTANCE PART-1-1 - 
             THIS BOUNDARY CONDITION IS IGNORED

 ***WARNING: DEGREE OF FREEDOM 5 IS NOT ACTIVE ON NODE 94 INSTANCE PART-1-1 - 
             THIS BOUNDARY CONDITION IS IGNORED

 ***WARNING: DEGREE OF FREEDOM 6 IS NOT ACTIVE ON NODE 94 INSTANCE PART-1-1 - 
             THIS BOUNDARY CONDITION IS IGNORED

 ***WARNING: DEGREE OF FREEDOM 4 IS NOT ACTIVE ON NODE 95 INSTANCE PART-1-1 - 
             THIS BOUNDARY CONDITION IS IGNORED

 ***WARNING: DEGREE OF FREEDOM 5 IS NOT ACTIVE ON NODE 95 INSTANCE PART-1-1 - 
             THIS BOUNDARY CONDITION IS IGNORED

 ***WARNING: DEGREE OF FREEDOM 6 IS NOT ACTIVE ON NODE 95 INSTANCE PART-1-1 - 
             THIS BOUNDARY CONDITION IS IGNORED

 ***WARNING: DEGREE OF FREEDOM 4 IS NOT ACTIVE ON NODE 96 INSTANCE PART-1-1 - 
             THIS BOUNDARY CONDITION IS IGNORED

 ***WARNING: DEGREE OF FREEDOM 5 IS NOT ACTIVE ON NODE 96 INSTANCE PART-1-1 - 
             THIS BOUNDARY CONDITION IS IGNORED

 ***WARNING: DEGREE OF FREEDOM 6 IS NOT ACTIVE ON NODE 96 INSTANCE PART-1-1 - 
             THIS BOUNDARY CONDITION IS IGNORED

 ***WARNING: DEGREE OF FREEDOM 4 IS NOT ACTIVE ON NODE 97 INSTANCE PART-1-1 - 
             THIS BOUNDARY CONDITION IS IGNORED

 ***WARNING: DEGREE OF FREEDOM 5 IS NOT ACTIVE ON NODE 97 INSTANCE PART-1-1 - 
             THIS BOUNDARY CONDITION IS IGNORED

 ***WARNING: DEGREE OF FREEDOM 6 IS NOT ACTIVE ON NODE 97 INSTANCE PART-1-1 - 
             THIS BOUNDARY CONDITION IS IGNORED

 ***WARNING: DEGREE OF FREEDOM 4 IS NOT ACTIVE ON NODE 98 INSTANCE PART-1-1 - 
             THIS BOUNDARY CONDITION IS IGNORED

 ***WARNING: DEGREE OF FREEDOM 5 IS NOT ACTIVE ON NODE 98 INSTANCE PART-1-1 - 
             THIS BOUNDARY CONDITION IS IGNORED

 ***WARNING: DEGREE OF FREEDOM 6 IS NOT ACTIVE ON NODE 98 INSTANCE PART-1-1 - 
             THIS BOUNDARY CONDITION IS IGNORED

 ***WARNING: DEGREE OF FREEDOM 4 IS NOT ACTIVE ON NODE 99 INSTANCE PART-1-1 - 
             THIS BOUNDARY CONDITION IS IGNORED

 ***WARNING: DEGREE OF FREEDOM 5 IS NOT ACTIVE ON NODE 99 INSTANCE PART-1-1 - 
             THIS BOUNDARY CONDITION IS IGNORED

 ***WARNING: DEGREE OF FREEDOM 6 IS NOT ACTIVE ON NODE 99 INSTANCE PART-1-1 - 
             THIS BOUNDARY CONDITION IS IGNORED

 ***WARNING: DEGREE OF FREEDOM 4 IS NOT ACTIVE ON NODE 100 INSTANCE PART-1-1 - 
             THIS BOUNDARY CONDITION IS IGNORED

 ***WARNING: DEGREE OF FREEDOM 5 IS NOT ACTIVE ON NODE 100 INSTANCE PART-1-1 - 
             THIS BOUNDARY CONDITION IS IGNORED

 ***WARNING: DEGREE OF FREEDOM 6 IS NOT ACTIVE ON NODE 100 INSTANCE PART-1-1 - 
             THIS BOUNDARY CONDITION IS IGNORED

 ***WARNING: DEGREE OF FREEDOM 4 IS NOT ACTIVE ON NODE 101 INSTANCE PART-1-1 - 
             THIS BOUNDARY CONDITION IS IGNORED

 ***WARNING: DEGREE OF FREEDOM 5 IS NOT ACTIVE ON NODE 101 INSTANCE PART-1-1 - 
             THIS BOUNDARY CONDITION IS IGNORED

 ***WARNING: DEGREE OF FREEDOM 6 IS NOT ACTIVE ON NODE 101 INSTANCE PART-1-1 - 
             THIS BOUNDARY CONDITION IS IGNORED

 ***WARNING: DEGREE OF FREEDOM 4 IS NOT ACTIVE ON NODE 102 INSTANCE PART-1-1 - 
             THIS BOUNDARY CONDITION IS IGNORED

 ***WARNING: DEGREE OF FREEDOM 5 IS NOT ACTIVE ON NODE 102 INSTANCE PART-1-1 - 
             THIS BOUNDARY CONDITION IS IGNORED

 ***WARNING: DEGREE OF FREEDOM 6 IS NOT ACTIVE ON NODE 102 INSTANCE PART-1-1 - 
             THIS BOUNDARY CONDITION IS IGNORED

 ***WARNING: DEGREE OF FREEDOM 4 IS NOT ACTIVE ON NODE 103 INSTANCE PART-1-1 - 
             THIS BOUNDARY CONDITION IS IGNORED

 ***WARNING: DEGREE OF FREEDOM 5 IS NOT ACTIVE ON NODE 103 INSTANCE PART-1-1 - 
             THIS BOUNDARY CONDITION IS IGNORED

 ***WARNING: DEGREE OF FREEDOM 6 IS NOT ACTIVE ON NODE 103 INSTANCE PART-1-1 - 
             THIS BOUNDARY CONDITION IS IGNORED

 ***WARNING: DEGREE OF FREEDOM 4 IS NOT ACTIVE ON NODE 104 INSTANCE PART-1-1 - 
             THIS BOUNDARY CONDITION IS IGNORED

 ***WARNING: DEGREE OF FREEDOM 5 IS NOT ACTIVE ON NODE 104 INSTANCE PART-1-1 - 
             THIS BOUNDARY CONDITION IS IGNORED

 ***WARNING: DEGREE OF FREEDOM 6 IS NOT ACTIVE ON NODE 104 INSTANCE PART-1-1 - 
             THIS BOUNDARY CONDITION IS IGNORED

 ***WARNING: DEGREE OF FREEDOM 4 IS NOT ACTIVE ON NODE 105 INSTANCE PART-1-1 - 
             THIS BOUNDARY CONDITION IS IGNORED

 ***WARNING: DEGREE OF FREEDOM 5 IS NOT ACTIVE ON NODE 105 INSTANCE PART-1-1 - 
             THIS BOUNDARY CONDITION IS IGNORED

 ***WARNING: DEGREE OF FREEDOM 6 IS NOT ACTIVE ON NODE 105 INSTANCE PART-1-1 - 
             THIS BOUNDARY CONDITION IS IGNORED

 ***WARNING: DEGREE OF FREEDOM 4 IS NOT ACTIVE ON NODE 106 INSTANCE PART-1-1 - 
             THIS BOUNDARY CONDITION IS IGNORED

 ***WARNING: DEGREE OF FREEDOM 5 IS NOT ACTIVE ON NODE 106 INSTANCE PART-1-1 - 
             THIS BOUNDARY CONDITION IS IGNORED

 ***WARNING: DEGREE OF FREEDOM 6 IS NOT ACTIVE ON NODE 106 INSTANCE PART-1-1 - 
             THIS BOUNDARY CONDITION IS IGNORED

 ***WARNING: DEGREE OF FREEDOM 4 IS NOT ACTIVE ON NODE 107 INSTANCE PART-1-1 - 
             THIS BOUNDARY CONDITION IS IGNORED

 ***WARNING: DEGREE OF FREEDOM 5 IS NOT ACTIVE ON NODE 107 INSTANCE PART-1-1 - 
             THIS BOUNDARY CONDITION IS IGNORED

 ***WARNING: DEGREE OF FREEDOM 6 IS NOT ACTIVE ON NODE 107 INSTANCE PART-1-1 - 
             THIS BOUNDARY CONDITION IS IGNORED

 ***WARNING: DEGREE OF FREEDOM 4 IS NOT ACTIVE ON NODE 108 INSTANCE PART-1-1 - 
             THIS BOUNDARY CONDITION IS IGNORED

 ***WARNING: DEGREE OF FREEDOM 5 IS NOT ACTIVE ON NODE 108 INSTANCE PART-1-1 - 
             THIS BOUNDARY CONDITION IS IGNORED

 ***WARNING: DEGREE OF FREEDOM 6 IS NOT ACTIVE ON NODE 108 INSTANCE PART-1-1 - 
             THIS BOUNDARY CONDITION IS IGNORED

 ***WARNING: DEGREE OF FREEDOM 4 IS NOT ACTIVE ON NODE 109 INSTANCE PART-1-1 - 
             THIS BOUNDARY CONDITION IS IGNORED

 ***WARNING: DEGREE OF FREEDOM 5 IS NOT ACTIVE ON NODE 109 INSTANCE PART-1-1 - 
             THIS BOUNDARY CONDITION IS IGNORED

 ***WARNING: DEGREE OF FREEDOM 6 IS NOT ACTIVE ON NODE 109 INSTANCE PART-1-1 - 
             THIS BOUNDARY CONDITION IS IGNORED

 ***WARNING: DEGREE OF FREEDOM 4 IS NOT ACTIVE ON NODE 110 INSTANCE PART-1-1 - 
             THIS BOUNDARY CONDITION IS IGNORED

 ***WARNING: DEGREE OF FREEDOM 5 IS NOT ACTIVE ON NODE 110 INSTANCE PART-1-1 - 
             THIS BOUNDARY CONDITION IS IGNORED

 ***WARNING: DEGREE OF FREEDOM 6 IS NOT ACTIVE ON NODE 110 INSTANCE PART-1-1 - 
             THIS BOUNDARY CONDITION IS IGNORED

 ***WARNING: DEGREE OF FREEDOM 4 IS NOT ACTIVE ON NODE 111 INSTANCE PART-1-1 - 
             THIS BOUNDARY CONDITION IS IGNORED

 ***WARNING: DEGREE OF FREEDOM 5 IS NOT ACTIVE ON NODE 111 INSTANCE PART-1-1 - 
             THIS BOUNDARY CONDITION IS IGNORED

 ***WARNING: DEGREE OF FREEDOM 6 IS NOT ACTIVE ON NODE 111 INSTANCE PART-1-1 - 
             THIS BOUNDARY CONDITION IS IGNORED

 ***WARNING: DEGREE OF FREEDOM 4 IS NOT ACTIVE ON NODE 112 INSTANCE PART-1-1 - 
             THIS BOUNDARY CONDITION IS IGNORED

 ***WARNING: DEGREE OF FREEDOM 5 IS NOT ACTIVE ON NODE 112 INSTANCE PART-1-1 - 
             THIS BOUNDARY CONDITION IS IGNORED

 ***WARNING: DEGREE OF FREEDOM 6 IS NOT ACTIVE ON NODE 112 INSTANCE PART-1-1 - 
             THIS BOUNDARY CONDITION IS IGNORED

 ***WARNING: DEGREE OF FREEDOM 4 IS NOT ACTIVE ON NODE 113 INSTANCE PART-1-1 - 
             THIS BOUNDARY CONDITION IS IGNORED

 ***WARNING: DEGREE OF FREEDOM 5 IS NOT ACTIVE ON NODE 113 INSTANCE PART-1-1 - 
             THIS BOUNDARY CONDITION IS IGNORED

 ***WARNING: DEGREE OF FREEDOM 6 IS NOT ACTIVE ON NODE 113 INSTANCE PART-1-1 - 
             THIS BOUNDARY CONDITION IS IGNORED

 ***WARNING: DEGREE OF FREEDOM 4 IS NOT ACTIVE ON NODE 114 INSTANCE PART-1-1 - 
             THIS BOUNDARY CONDITION IS IGNORED

 ***WARNING: DEGREE OF FREEDOM 5 IS NOT ACTIVE ON NODE 114 INSTANCE PART-1-1 - 
             THIS BOUNDARY CONDITION IS IGNORED

 ***WARNING: DEGREE OF FREEDOM 6 IS NOT ACTIVE ON NODE 114 INSTANCE PART-1-1 - 
             THIS BOUNDARY CONDITION IS IGNORED

 ***WARNING: DEGREE OF FREEDOM 4 IS NOT ACTIVE ON NODE 115 INSTANCE PART-1-1 - 
             THIS BOUNDARY CONDITION IS IGNORED

 ***WARNING: DEGREE OF FREEDOM 5 IS NOT ACTIVE ON NODE 115 INSTANCE PART-1-1 - 
             THIS BOUNDARY CONDITION IS IGNORED

 ***WARNING: DEGREE OF FREEDOM 6 IS NOT ACTIVE ON NODE 115 INSTANCE PART-1-1 - 
             THIS BOUNDARY CONDITION IS IGNORED

 ***WARNING: DEGREE OF FREEDOM 4 IS NOT ACTIVE ON NODE 116 INSTANCE PART-1-1 - 
             THIS BOUNDARY CONDITION IS IGNORED

 ***WARNING: DEGREE OF FREEDOM 5 IS NOT ACTIVE ON NODE 116 INSTANCE PART-1-1 - 
             THIS BOUNDARY CONDITION IS IGNORED

 ***WARNING: DEGREE OF FREEDOM 6 IS NOT ACTIVE ON NODE 116 INSTANCE PART-1-1 - 
             THIS BOUNDARY CONDITION IS IGNORED

[...]
             THIS BOUNDARY CONDITION IS IGNORED

 ***WARNING: DEGREE OF FREEDOM 4 IS NOT ACTIVE ON NODE 1426 INSTANCE PART-1-1 - 
             THIS BOUNDARY CONDITION IS IGNORED

 ***WARNING: DEGREE OF FREEDOM 5 IS NOT ACTIVE ON NODE 1426 INSTANCE PART-1-1 - 
             THIS BOUNDARY CONDITION IS IGNORED

 ***WARNING: DEGREE OF FREEDOM 6 IS NOT ACTIVE ON NODE 1426 INSTANCE PART-1-1 - 
             THIS BOUNDARY CONDITION IS IGNORED

 ***WARNING: DEGREE OF FREEDOM 4 IS NOT ACTIVE ON NODE 1427 INSTANCE PART-1-1 - 
             THIS BOUNDARY CONDITION IS IGNORED

 ***WARNING: DEGREE OF FREEDOM 5 IS NOT ACTIVE ON NODE 1427 INSTANCE PART-1-1 - 
             THIS BOUNDARY CONDITION IS IGNORED

 ***WARNING: DEGREE OF FREEDOM 6 IS NOT ACTIVE ON NODE 1427 INSTANCE PART-1-1 - 
             THIS BOUNDARY CONDITION IS IGNORED

 ***WARNING: DEGREE OF FREEDOM 4 IS NOT ACTIVE ON NODE 1428 INSTANCE PART-1-1 - 
             THIS BOUNDARY CONDITION IS IGNORED

 ***WARNING: DEGREE OF FREEDOM 5 IS NOT ACTIVE ON NODE 1428 INSTANCE PART-1-1 - 
             THIS BOUNDARY CONDITION IS IGNORED

 ***WARNING: DEGREE OF FREEDOM 6 IS NOT ACTIVE ON NODE 1428 INSTANCE PART-1-1 - 
             THIS BOUNDARY CONDITION IS IGNORED

 ***WARNING: DEGREE OF FREEDOM 4 IS NOT ACTIVE ON NODE 1429 INSTANCE PART-1-1 - 
             THIS BOUNDARY CONDITION IS IGNORED

 ***WARNING: DEGREE OF FREEDOM 5 IS NOT ACTIVE ON NODE 1429 INSTANCE PART-1-1 - 
             THIS BOUNDARY CONDITION IS IGNORED

 ***WARNING: DEGREE OF FREEDOM 6 IS NOT ACTIVE ON NODE 1429 INSTANCE PART-1-1 - 
             THIS BOUNDARY CONDITION IS IGNORED

 ***WARNING: DEGREE OF FREEDOM 4 IS NOT ACTIVE ON NODE 1430 INSTANCE PART-1-1 - 
             THIS BOUNDARY CONDITION IS IGNORED

 ***WARNING: DEGREE OF FREEDOM 5 IS NOT ACTIVE ON NODE 1430 INSTANCE PART-1-1 - 
             THIS BOUNDARY CONDITION IS IGNORED

 ***WARNING: DEGREE OF FREEDOM 6 IS NOT ACTIVE ON NODE 1430 INSTANCE PART-1-1 - 
             THIS BOUNDARY CONDITION IS IGNORED

 ***WARNING: DEGREE OF FREEDOM 4 IS NOT ACTIVE ON NODE 1431 INSTANCE PART-1-1 - 
             THIS BOUNDARY CONDITION IS IGNORED

 ***WARNING: DEGREE OF FREEDOM 5 IS NOT ACTIVE ON NODE 1431 INSTANCE PART-1-1 - 
             THIS BOUNDARY CONDITION IS IGNORED

 ***WARNING: DEGREE OF FREEDOM 6 IS NOT ACTIVE ON NODE 1431 INSTANCE PART-1-1 - 
             THIS BOUNDARY CONDITION IS IGNORED

 ***WARNING: DEGREE OF FREEDOM 4 IS NOT ACTIVE ON NODE 1432 INSTANCE PART-1-1 - 
             THIS BOUNDARY CONDITION IS IGNORED

 ***WARNING: DEGREE OF FREEDOM 5 IS NOT ACTIVE ON NODE 1432 INSTANCE PART-1-1 - 
             THIS BOUNDARY CONDITION IS IGNORED

 ***WARNING: DEGREE OF FREEDOM 6 IS NOT ACTIVE ON NODE 1432 INSTANCE PART-1-1 - 
             THIS BOUNDARY CONDITION IS IGNORED

 ***WARNING: DEGREE OF FREEDOM 4 IS NOT ACTIVE ON NODE 1433 INSTANCE PART-1-1 - 
             THIS BOUNDARY CONDITION IS IGNORED

 ***WARNING: DEGREE OF FREEDOM 5 IS NOT ACTIVE ON NODE 1433 INSTANCE PART-1-1 - 
             THIS BOUNDARY CONDITION IS IGNORED

 ***WARNING: DEGREE OF FREEDOM 6 IS NOT ACTIVE ON NODE 1433 INSTANCE PART-1-1 - 
             THIS BOUNDARY CONDITION IS IGNORED

 ***WARNING: DEGREE OF FREEDOM 4 IS NOT ACTIVE ON NODE 1434 INSTANCE PART-1-1 - 
             THIS BOUNDARY CONDITION IS IGNORED

 ***WARNING: DEGREE OF FREEDOM 5 IS NOT ACTIVE ON NODE 1434 INSTANCE PART-1-1 - 
             THIS BOUNDARY CONDITION IS IGNORED

 ***WARNING: DEGREE OF FREEDOM 6 IS NOT ACTIVE ON NODE 1434 INSTANCE PART-1-1 - 
             THIS BOUNDARY CONDITION IS IGNORED

 ***WARNING: DEGREE OF FREEDOM 4 IS NOT ACTIVE ON NODE 1435 INSTANCE PART-1-1 - 
             THIS BOUNDARY CONDITION IS IGNORED

 ***WARNING: DEGREE OF FREEDOM 5 IS NOT ACTIVE ON NODE 1435 INSTANCE PART-1-1 - 
             THIS BOUNDARY CONDITION IS IGNORED

 ***WARNING: DEGREE OF FREEDOM 6 IS NOT ACTIVE ON NODE 1435 INSTANCE PART-1-1 - 
             THIS BOUNDARY CONDITION IS IGNORED

 ***WARNING: DEGREE OF FREEDOM 4 IS NOT ACTIVE ON NODE 1436 INSTANCE PART-1-1 - 
             THIS BOUNDARY CONDITION IS IGNORED

 ***WARNING: DEGREE OF FREEDOM 5 IS NOT ACTIVE ON NODE 1436 INSTANCE PART-1-1 - 
             THIS BOUNDARY CONDITION IS IGNORED

 ***WARNING: DEGREE OF FREEDOM 6 IS NOT ACTIVE ON NODE 1436 INSTANCE PART-1-1 - 
             THIS BOUNDARY CONDITION IS IGNORED

 ***WARNING: DEGREE OF FREEDOM 4 IS NOT ACTIVE ON NODE 1437 INSTANCE PART-1-1 - 
             THIS BOUNDARY CONDITION IS IGNORED

 ***WARNING: DEGREE OF FREEDOM 5 IS NOT ACTIVE ON NODE 1437 INSTANCE PART-1-1 - 
             THIS BOUNDARY CONDITION IS IGNORED

 ***WARNING: DEGREE OF FREEDOM 6 IS NOT ACTIVE ON NODE 1437 INSTANCE PART-1-1 - 
             THIS BOUNDARY CONDITION IS IGNORED

 ***WARNING: DEGREE OF FREEDOM 4 IS NOT ACTIVE ON NODE 1438 INSTANCE PART-1-1 - 
             THIS BOUNDARY CONDITION IS IGNORED

 ***WARNING: DEGREE OF FREEDOM 5 IS NOT ACTIVE ON NODE 1438 INSTANCE PART-1-1 - 
             THIS BOUNDARY CONDITION IS IGNORED

 ***WARNING: DEGREE OF FREEDOM 6 IS NOT ACTIVE ON NODE 1438 INSTANCE PART-1-1 - 
             THIS BOUNDARY CONDITION IS IGNORED

 ***WARNING: DEGREE OF FREEDOM 4 IS NOT ACTIVE ON NODE 1439 INSTANCE PART-1-1 - 
             THIS BOUNDARY CONDITION IS IGNORED

 ***WARNING: DEGREE OF FREEDOM 5 IS NOT ACTIVE ON NODE 1439 INSTANCE PART-1-1 - 
             THIS BOUNDARY CONDITION IS IGNORED

 ***WARNING: DEGREE OF FREEDOM 6 IS NOT ACTIVE ON NODE 1439 INSTANCE PART-1-1 - 
             THIS BOUNDARY CONDITION IS IGNORED

 ***WARNING: DEGREE OF FREEDOM 4 IS NOT ACTIVE ON NODE 1440 INSTANCE PART-1-1 - 
             THIS BOUNDARY CONDITION IS IGNORED

 ***WARNING: DEGREE OF FREEDOM 5 IS NOT ACTIVE ON NODE 1440 INSTANCE PART-1-1 - 
             THIS BOUNDARY CONDITION IS IGNORED

 ***WARNING: DEGREE OF FREEDOM 6 IS NOT ACTIVE ON NODE 1440 INSTANCE PART-1-1 - 
             THIS BOUNDARY CONDITION IS IGNORED

 ***WARNING: DEGREE OF FREEDOM 4 IS NOT ACTIVE ON NODE 1441 INSTANCE PART-1-1 - 
             THIS BOUNDARY CONDITION IS IGNORED

 ***WARNING: DEGREE OF FREEDOM 5 IS NOT ACTIVE ON NODE 1441 INSTANCE PART-1-1 - 
             THIS BOUNDARY CONDITION IS IGNORED

 ***WARNING: DEGREE OF FREEDOM 6 IS NOT ACTIVE ON NODE 1441 INSTANCE PART-1-1 - 
             THIS BOUNDARY CONDITION IS IGNORED

 ***WARNING: DEGREE OF FREEDOM 4 IS NOT ACTIVE ON NODE 1442 INSTANCE PART-1-1 - 
             THIS BOUNDARY CONDITION IS IGNORED

 ***WARNING: DEGREE OF FREEDOM 5 IS NOT ACTIVE ON NODE 1442 INSTANCE PART-1-1 - 
             THIS BOUNDARY CONDITION IS IGNORED

 ***WARNING: DEGREE OF FREEDOM 6 IS NOT ACTIVE ON NODE 1442 INSTANCE PART-1-1 - 
             THIS BOUNDARY CONDITION IS IGNORED

 ***WARNING: DEGREE OF FREEDOM 4 IS NOT ACTIVE ON NODE 1443 INSTANCE PART-1-1 - 
             THIS BOUNDARY CONDITION IS IGNORED

 ***WARNING: DEGREE OF FREEDOM 5 IS NOT ACTIVE ON NODE 1443 INSTANCE PART-1-1 - 
             THIS BOUNDARY CONDITION IS IGNORED

 ***WARNING: DEGREE OF FREEDOM 6 IS NOT ACTIVE ON NODE 1443 INSTANCE PART-1-1 - 
             THIS BOUNDARY CONDITION IS IGNORED

 ***WARNING: DEGREE OF FREEDOM 4 IS NOT ACTIVE ON NODE 1444 INSTANCE PART-1-1 - 
             THIS BOUNDARY CONDITION IS IGNORED

 ***WARNING: DEGREE OF FREEDOM 5 IS NOT ACTIVE ON NODE 1444 INSTANCE PART-1-1 - 
             THIS BOUNDARY CONDITION IS IGNORED

 ***WARNING: DEGREE OF FREEDOM 6 IS NOT ACTIVE ON NODE 1444 INSTANCE PART-1-1 - 
             THIS BOUNDARY CONDITION IS IGNORED

 ***WARNING: DEGREE OF FREEDOM 4 IS NOT ACTIVE ON NODE 1445 INSTANCE PART-1-1 - 
             THIS BOUNDARY CONDITION IS IGNORED

 ***WARNING: DEGREE OF FREEDOM 5 IS NOT ACTIVE ON NODE 1445 INSTANCE PART-1-1 - 
             THIS BOUNDARY CONDITION IS IGNORED

 ***WARNING: DEGREE OF FREEDOM 6 IS NOT ACTIVE ON NODE 1445 INSTANCE PART-1-1 - 
             THIS BOUNDARY CONDITION IS IGNORED

 ***WARNING: DEGREE OF FREEDOM 4 IS NOT ACTIVE ON NODE 1446 INSTANCE PART-1-1 - 
             THIS BOUNDARY CONDITION IS IGNORED

 ***WARNING: DEGREE OF FREEDOM 5 IS NOT ACTIVE ON NODE 1446 INSTANCE PART-1-1 - 
             THIS BOUNDARY CONDITION IS IGNORED

 ***WARNING: DEGREE OF FREEDOM 6 IS NOT ACTIVE ON NODE 1446 INSTANCE PART-1-1 - 
             THIS BOUNDARY CONDITION IS IGNORED

 ***WARNING: DEGREE OF FREEDOM 4 IS NOT ACTIVE ON NODE 1447 INSTANCE PART-1-1 - 
             THIS BOUNDARY CONDITION IS IGNORED

 ***WARNING: DEGREE OF FREEDOM 5 IS NOT ACTIVE ON NODE 1447 INSTANCE PART-1-1 - 
             THIS BOUNDARY CONDITION IS IGNORED

 ***WARNING: DEGREE OF FREEDOM 6 IS NOT ACTIVE ON NODE 1447 INSTANCE PART-1-1 - 
             THIS BOUNDARY CONDITION IS IGNORED

 ***WARNING: DEGREE OF FREEDOM 4 IS NOT ACTIVE ON NODE 1448 INSTANCE PART-1-1 - 
             THIS BOUNDARY CONDITION IS IGNORED

 ***WARNING: DEGREE OF FREEDOM 5 IS NOT ACTIVE ON NODE 1448 INSTANCE PART-1-1 - 
             THIS BOUNDARY CONDITION IS IGNORED

 ***WARNING: DEGREE OF FREEDOM 6 IS NOT ACTIVE ON NODE 1448 INSTANCE PART-1-1 - 
             THIS BOUNDARY CONDITION IS IGNORED

 ***WARNING: DEGREE OF FREEDOM 4 IS NOT ACTIVE ON NODE 1449 INSTANCE PART-1-1 - 
             THIS BOUNDARY CONDITION IS IGNORED

 ***WARNING: DEGREE OF FREEDOM 5 IS NOT ACTIVE ON NODE 1449 INSTANCE PART-1-1 - 
             THIS BOUNDARY CONDITION IS IGNORED

 ***WARNING: DEGREE OF FREEDOM 6 IS NOT ACTIVE ON NODE 1449 INSTANCE PART-1-1 - 
             THIS BOUNDARY CONDITION IS IGNORED

 ***WARNING: DEGREE OF FREEDOM 4 IS NOT ACTIVE ON NODE 1450 INSTANCE PART-1-1 - 
             THIS BOUNDARY CONDITION IS IGNORED

 ***WARNING: DEGREE OF FREEDOM 5 IS NOT ACTIVE ON NODE 1450 INSTANCE PART-1-1 - 
             THIS BOUNDARY CONDITION IS IGNORED

 ***WARNING: DEGREE OF FREEDOM 6 IS NOT ACTIVE ON NODE 1450 INSTANCE PART-1-1 - 
             THIS BOUNDARY CONDITION IS IGNORED

 ***WARNING: DEGREE OF FREEDOM 4 IS NOT ACTIVE ON NODE 1451 INSTANCE PART-1-1 - 
             THIS BOUNDARY CONDITION IS IGNORED

 ***WARNING: DEGREE OF FREEDOM 5 IS NOT ACTIVE ON NODE 1451 INSTANCE PART-1-1 - 
             THIS BOUNDARY CONDITION IS IGNORED

 ***WARNING: DEGREE OF FREEDOM 6 IS NOT ACTIVE ON NODE 1451 INSTANCE PART-1-1 - 
             THIS BOUNDARY CONDITION IS IGNORED

 ***WARNING: DEGREE OF FREEDOM 4 IS NOT ACTIVE ON NODE 1452 INSTANCE PART-1-1 - 
             THIS BOUNDARY CONDITION IS IGNORED

 ***WARNING: DEGREE OF FREEDOM 5 IS NOT ACTIVE ON NODE 1452 INSTANCE PART-1-1 - 
             THIS BOUNDARY CONDITION IS IGNORED

 ***WARNING: DEGREE OF FREEDOM 6 IS NOT ACTIVE ON NODE 1452 INSTANCE PART-1-1 - 
             THIS BOUNDARY CONDITION IS IGNORED

 ***WARNING: Boundary conditions are specified on inactive dof of 1128 nodes. 
             The nodes have been identified in node set WarnNodeBCInactiveDof.



                            P R O B L E M   S I Z E


          NUMBER OF ELEMENTS IS                                  9243
          NUMBER OF NODES IS                                    14878
          NUMBER OF NODES DEFINED BY THE USER                    9700
          NUMBER OF INTERNAL NODES GENERATED BY THE PROGRAM      5178
          TOTAL NUMBER OF VARIABLES IN THE MODEL                66282
          (DEGREES OF FREEDOM PLUS ANY LAGRANGE MULTIPLIER VARIABLES)



                              END OF USER INPUT PROCESSING



     JOB TIME SUMMARY
       USER TIME (SEC)      =   1.9600    
       SYSTEM TIME (SEC)    =  0.23000    
       TOTAL CPU TIME (SEC) =   2.1900    
       WALLCLOCK TIME (SEC) =          2
1

   Abaqus Version 6.7-3                                     DATE 04-Nov-2010   TIME 23:18:48
   For use at EDV Zentrum Uni Innsbruck under license from ABAQUS, Inc.

                                                                                               STEP    1  INCREMENT    1
                                                                                          TIME COMPLETED IN THIS STEP   0.00    


                        S T E P       1     S T A T I C   A N A L Y S I S


                                                                                          

     AUTOMATIC TIME CONTROL WITH -
          A SUGGESTED INITIAL TIME INCREMENT OF                 1.00    
          AND A TOTAL TIME PERIOD OF                            1.00    
          THE MINIMUM TIME INCREMENT ALLOWED IS                1.000E-05
          THE MAXIMUM TIME INCREMENT ALLOWED IS                 1.00    

     LINEAR EQUATION SOLVER TYPE         DIRECT SPARSE



 STEP     1, INCREMENT          1, TIME INCREMENT=         0.100E+01, TOTAL TIME=         0.100E+01
 REORDERING OF EQUATIONS TO MINIMIZE WAVEFRONT HAS CHANGED THE MEMORY AND DISK ESTIMATES TO:
  
                   M E M O R Y   A N D   D I S K   E S T I M A T E
            SUMMARY FOR CURRENT NODE ORDERING  (STEP 1  TO  STEP 2)
  
          (NOTE THAT IF NODE ORDERING CHANGES THE SIZE ESTIMATES FOR THE STEPS WILL CHANGE)
  
  
           STEP   MAXIMUM DOF     FLOATING PT    MINIMUM MEMORY      MEMORY TO      REQUIRED DISKSPACE
                  WAVEFRONT       OPERATIONS       REQUIRED        MINIMIZE I/O
                                PER ITERATION     (MBYTES)           (MBYTES)          (MBYTES)
  
             1        1044         2.46E+09         39.14             101.68             96.19
             2        1044         2.46E+09         39.14             101.68             96.19
          ----    ---------      ------------    -------------     -------------      -------------
           MAX        1044         2.46E+09         39.14             101.68             96.19
  
  
          THE TABLE ABOVE PROVIDES A STEP BY STEP SUMMARY OF SOME BASIC SIZING INFORMATION
          FOR THE PROBLEM. SOME FURTHER DESCRIPTION OF THE PARAMETERS GIVEN FOLLOWS:
  
          (1) MAXIMUM DOF WAVEFRONT - SIZE OF THE BIGGEST FRONT IN THE EQUATION SOLVER.
              PROVIDES A BASIC SIZING OF THE MOST MEMORY INTENSIVE SEGMENT OF SOLVER.
          (2) FLOATING POINT OPERATIONS PER ITERATION - MEASURE OF THE NUMBER OF FLOATING
              POINT OPERATIONS REQUIRED FOR A SINGLE SOLVER PASS. ON A GIVEN PLATFORM
              THE TIME REQUIRED FOR A SOLVER PASS WILL BE ROUGHLY A LINEAR FUNCTION
              OF THIS VALUE.
              NOTE - EXCEPT FOR THE FIRST STEP, THE VALUE IN THIS TABLE DOES NOT INCLUDE
                     ADDITIONAL FLOATING POINT OPERATIONS THAT ARE REQUIRED IN MULTIPLE LOAD
                     CASE STEPS WHEN CONSTRAINTS CHANGE FROM LOAD CASE TO LOAD CASE.  THIS
                     SITUATION CAUSES A REORDERING TO BE PERFORMED, AT WHICH TIME AN UPPER
                     BOUND ON THE NUMBER OF ADDITIONAL FLOATING POINT OPERATIONS WILL BE
                     CALCULATED AND INCLUDED UNDER THE ESTIMATE SUMMARIES FOR THE RELEVANT
                     STEPS (SEE NOTE BELOW ON REORDERING).
          (3) MINIMUM MEMORY REQUIRED - MINIMUM POSSIBLE MEMORY VALUE FOR standard_memory
              THAT ENABLES Abaqus TO SOLVE THE PROBLEM. USE OF MEMORY WILL BE MINIMIZED BY
              WRITING AS MUCH INFORMATION AS POSSIBLE TO DISK WHICH WILL INCREASE I/O TIME.
          (4) MEMORY TO MINIMIZE I/O - VALUE OF standard_memory THAT ALLOWS Abaqus TO KEEP
              ALL SIGNIFICANT SCRATCH FILES IN MEMORY. THIS WILL MINIMIZE I/O TIME FOR THE USER
              WITH ACCESS TO A LARGE AMOUNT OF MEMORY.
          (5) REQUIRED DISKSPACE - AMOUNT OF DISK REQUIRED FOR SCRATCH FILES. THESE WILL BE
              DELETED AT THE END OF THE ANALYSIS.
  
  
           NOTE - WHENEVER POSSIBLE THE USER SHOULD SET standard_memory TO BE LESS THAN THE
          PHYSICAL MEMORY ON THE MACHINE. UNLESS NECESSARY USERS SHOULD NOT MAKE USE
          OF VIRTUAL MEMORY EVEN IN AN ATTEMPT TO KEEP SCRATCH FILES IN MEMORY.
  
           NOTE - IF A REORDERING IS PERFORMED (THIS WILL ONLY GENERALLY BE DONE FOR FINITE-
          SLIDING CONTACT PROBLEMS), THE SIZE ESTIMATES DONE AT THIS TIME WILL NO LONGER 
          BE VALID. THE ESTIMATES WILL BE REDONE IN THE EVENT OF A REORDERING AND A NEW 
          SUMMARY WILL BE PRINTED FOR THE REMAINING STEPS.
  
  
  
           S I Z E   E S T I M A T E S   F O R   C U R R E N T   S T E P
  
          NUMBER OF EQUATIONS                        66282
          MAX DOF WAVEFRONT                          1044
          FLOATING POINT OPS PER SOLVER ITERATION    2.46E+09
          MEMORY USED FOR STEP                     256.00 MBYTES
  
  
           ESTIMATED FILE SIZES
  
           FILE           MWORDS           MBYTES
  
          unit 10          0.036            0.277
          .fct             8.895           67.863
          .nck             0.233            1.774
          .opr             3.444           26.272
          -------        -------          -------
           TOTAL          12.607           96.186
  



                    TOTAL MASS OF MODEL

                      2.1908569E+07


                    LOCATION OF THE CENTER OF MASS OF THE MODEL

                       3.709820          -3.633764           2.026830    


                    MOMENTS OF INERTIA ABOUT THE ORIGIN
                           I(XX)               I(YY)               I(ZZ)

                      3.2694485E+09      3.2816094E+09      3.3825469E+09


                    PRODUCTS OF INERTIA ABOUT THE ORIGIN
                           I(XY)               I(XZ)               I(YZ)

                      2.9629244E+08     -1.5886531E+08      1.4158525E+08


                    MOMENTS OF INERTIA ABOUT THE CENTER OF MASS
                           I(XX)               I(YY)               I(ZZ)

                      2.8901612E+09      2.8900857E+09      2.7917384E+09


                    PRODUCTS OF INERTIA ABOUT THE CENTER OF MASS
                           I(XY)               I(XZ)               I(YZ)

                       951580.2           5869063.         -1.9771874E+07
1

   Abaqus Version 6.7-3                                     DATE 04-Nov-2010   TIME 23:19:05
   For use at EDV Zentrum Uni Innsbruck under license from ABAQUS, Inc.

                                                                                               STEP    2  INCREMENT    1
                                                                                          TIME COMPLETED IN THIS STEP   0.00    


                        S T E P       2     S T A T I C   A N A L Y S I S


                                                                                          

     AUTOMATIC TIME CONTROL WITH -
          A SUGGESTED INITIAL TIME INCREMENT OF                 1.00    
          AND A TOTAL TIME PERIOD OF                            1.00    
          THE MINIMUM TIME INCREMENT ALLOWED IS                1.000E-05
          THE MAXIMUM TIME INCREMENT ALLOWED IS                 1.00    

     LINEAR EQUATION SOLVER TYPE         DIRECT SPARSE
  
                   M E M O R Y   A N D   D I S K   E S T I M A T E
  
  
           S I Z E   E S T I M A T E S   F O R   C U R R E N T   S T E P
  
          NUMBER OF EQUATIONS                        66282
          MAX DOF WAVEFRONT                          1044
          FLOATING POINT OPS PER SOLVER ITERATION    2.46E+09
          MEMORY USED FOR STEP                     256.00 MBYTES
  
  
           ESTIMATED FILE SIZES
  
           FILE           MWORDS           MBYTES
  
          unit 10          0.036            0.277
          .fct             8.895           67.863
          .nck             0.233            1.774
          .opr             3.444           26.272
          -------        -------          -------
           TOTAL          12.607           96.186
  


          THE ANALYSIS HAS BEEN COMPLETED



                              ANALYSIS COMPLETE
                              WITH  6772 WARNING MESSAGES ON THE DAT FILE



     JOB TIME SUMMARY
       USER TIME (SEC)      =   12.530    
       SYSTEM TIME (SEC)    =   2.0600    
       TOTAL CPU TIME (SEC) =   14.590    
       WALLCLOCK TIME (SEC) =         26
